@<TRIPOS>MOLECULE
J5N
   76    80     1     0     0
SMALL
abcg2


@<TRIPOS>ATOM
      1 C12          4.2250     0.2080     0.1750 c          1 J5N       0.598100
      2 C10          8.0850    -2.2210     1.9320 c1         1 J5N      -0.139100
      3 C11          8.9630    -3.0400     1.9660 c1         1 J5N      -0.215000
      4 C7           8.4560     1.6690     0.4450 c5         1 J5N       0.105600
      5 C6           6.9620     1.9120     0.1870 c5         1 J5N       0.126300
      6 N1           5.4660    -0.0730     0.6030 n          1 J5N      -0.408800
      7 C5           6.2910     0.9700     1.2040 c5         1 J5N       0.075700
      8 C4           7.4600     0.2030     1.8390 c5         1 J5N       0.150300
      9 C29         -4.7350     2.0850    -0.8110 cc         1 J5N       0.006000
     10 S30         -6.4440     2.2800    -0.6110 ss         1 J5N      -0.114400
     11 C31         -6.4950     0.5860    -0.1480 cc         1 J5N       0.730300
     12 N34         -7.6730    -0.0150     0.1300 nh         1 J5N      -0.756300
     13 C39         -8.8500     0.7780     0.4330 c6         1 J5N       0.213800
     14 C38        -10.1090    -0.0340     0.1990 c6         1 J5N       0.153300
     15 N37        -10.0680    -1.2790     0.9350 n3         1 J5N      -0.712600
     16 C40        -11.3090    -2.0100     0.8120 c3         1 J5N       0.151100
     17 C36         -8.9350    -2.0670     0.4980 c6         1 J5N       0.153300
     18 C35         -7.6350    -1.3310     0.7510 c6         1 J5N       0.213800
     19 N32         -5.3430    -0.0010    -0.1390 nd         1 J5N      -0.727000
     20 C28         -4.3160     0.8320    -0.5250 cd         1 J5N       0.356500
     21 C25         -2.9470     0.3100    -0.5470 ca         1 J5N      -0.098500
     22 C24         -1.8870     0.9830    -1.1600 ca         1 J5N      -0.094500
     23 C23         -0.6070     0.4580    -1.1320 ca         1 J5N      -0.078500
     24 C26         -2.6840    -0.9190     0.0660 ca         1 J5N      -0.094500
     25 C27         -1.4060    -1.4450     0.0810 ca         1 J5N      -0.078500
     26 C22         -0.3450    -0.7560    -0.5010 ca         1 J5N      -0.141600
     27 O21          1.1640    -2.5750    -0.3230 o          1 J5N      -0.613100
     28 N19          2.0450    -0.5060    -0.5130 ns         1 J5N      -0.496900
     29 C13          3.4220    -0.9290    -0.4510 c3         1 J5N       0.041700
     30 C15          3.9470    -1.3980    -1.8200 c3         1 J5N      -0.083400
     31 C16          3.8280    -0.4250    -2.9970 c3         1 J5N      -0.056700
     32 C18          4.8570     0.7020    -2.9640 c3         1 J5N      -0.093100
     33 C17          3.9730    -1.2080    -4.3000 c3         1 J5N      -0.093100
     34 O14          3.7500     1.3320     0.2800 o          1 J5N      -0.600100
     35 O9           6.5630     3.2380     0.3990 oh         1 J5N      -0.696000
     36 O8           8.5380     0.3520     0.9460 os         1 J5N      -0.429000
     37 C3           7.0040    -1.2520     1.8800 c5         1 J5N       0.009400
     38 C2           6.1250    -1.3660     0.6320 c5         1 J5N       0.108000
     39 H1           9.7490    -3.7600     2.0000 ha         1 J5N       0.257000
     40 H2           9.0730     1.7380    -0.4520 h1         1 J5N       0.057700
     41 H3           8.8220     2.4000     1.1790 h1         1 J5N       0.057700
     42 H4           6.7050     1.5760    -0.8250 h1         1 J5N       0.054700
     43 H5           5.7150     1.5370     1.9370 h1         1 J5N       0.105700
     44 H6           7.7140     0.5870     2.8330 h1         1 J5N       0.070700
     45 H7          -8.8180     1.1370     1.4680 h1         1 J5N       0.058700
     46 H8          -8.8900     1.6500    -0.2230 h1         1 J5N       0.058700
     47 H9         -10.9630     0.5580     0.5340 h1         1 J5N       0.044450
     48 H10        -10.2350    -0.2030    -0.8850 h1         1 J5N       0.044450
     49 H12        -11.2640    -2.9220     1.4090 h1         1 J5N       0.034033
     50 H13        -12.1360    -1.4060     1.1860 h1         1 J5N       0.034033
     51 H14        -11.5430    -2.2960    -0.2250 h1         1 J5N       0.034033
     52 H15         -8.9100    -3.0040     1.0580 h1         1 J5N       0.044450
     53 H16         -9.0070    -2.3270    -0.5720 h1         1 J5N       0.044450
     54 H17         -6.8070    -1.8970     0.3320 h1         1 J5N       0.058700
     55 H18         -7.4630    -1.2330     1.8290 h1         1 J5N       0.058700
     56 H19         -2.0460     1.9140    -1.6830 ha         1 J5N       0.131000
     57 H20          0.1790     1.0010    -1.6430 ha         1 J5N       0.126000
     58 H21         -3.4910    -1.4620     0.5370 ha         1 J5N       0.131000
     59 H22         -1.2270    -2.3970     0.5630 ha         1 J5N       0.126000
     60 H23          1.8800     0.4890    -0.4800 hn         1 J5N       0.344500
     61 H24          3.4750    -1.7910     0.2220 h1         1 J5N       0.080700
     62 H25          4.9870    -1.7220    -1.7240 hc         1 J5N       0.054700
     63 H26          3.3840    -2.3040    -2.0600 hc         1 J5N       0.054700
     64 H27          2.8260     0.0180    -2.9830 hc         1 J5N       0.054700
     65 H28          5.8730     0.2990    -2.9250 hc         1 J5N       0.034533
     66 H29          4.7830     1.3120    -3.8650 hc         1 J5N       0.034533
     67 H30          4.7280     1.3750    -2.1180 hc         1 J5N       0.034533
     68 H31          3.2070    -1.9780    -4.3970 hc         1 J5N       0.034533
     69 H32          3.8940    -0.5490    -5.1660 hc         1 J5N       0.034533
     70 H33          4.9480    -1.7010    -4.3500 hc         1 J5N       0.034533
     71 H34          6.9510     3.7840    -0.2920 ho         1 J5N       0.508000
     72 H35          6.3680    -1.3760     2.7620 hc         1 J5N       0.079700
     73 H36          5.4190    -2.1890     0.7110 h1         1 J5N       0.064700
     74 H37          6.7390    -1.5250    -0.2590 h1         1 J5N       0.064700
     75 C20          1.0160    -1.3650    -0.4430 c          1 J5N       0.616700
     76 F33         -4.0170     3.1420    -1.1740 f          1 J5N      -0.135000
@<TRIPOS>BOND
     1     1     6 1   
     2     1    29 1   
     3     1    34 2   
     4     2     3 3   
     5     2    37 1   
     6     3    39 1   
     7     4     5 1   
     8     4    36 1   
     9     4    40 1   
    10     4    41 1   
    11     5     7 1   
    12     5    35 1   
    13     5    42 1   
    14     6     7 1   
    15     6    38 1   
    16     7     8 1   
    17     7    43 1   
    18     8    36 1   
    19     8    37 1   
    20     8    44 1   
    21     9    10 1   
    22     9    20 2   
    23     9    76 1   
    24    10    11 1   
    25    11    12 1   
    26    11    19 2   
    27    12    13 1   
    28    12    18 1   
    29    13    14 1   
    30    13    45 1   
    31    13    46 1   
    32    14    15 1   
    33    14    47 1   
    34    14    48 1   
    35    15    16 1   
    36    15    17 1   
    37    16    49 1   
    38    16    50 1   
    39    16    51 1   
    40    17    18 1   
    41    17    52 1   
    42    17    53 1   
    43    18    54 1   
    44    18    55 1   
    45    19    20 1   
    46    20    21 1   
    47    21    22 ar  
    48    21    24 ar  
    49    22    23 ar  
    50    22    56 1   
    51    23    26 ar  
    52    23    57 1   
    53    24    25 ar  
    54    24    58 1   
    55    25    26 ar  
    56    25    59 1   
    57    26    75 1   
    58    27    75 2   
    59    28    29 1   
    60    28    60 1   
    61    28    75 1   
    62    29    30 1   
    63    29    61 1   
    64    30    31 1   
    65    30    62 1   
    66    30    63 1   
    67    31    32 1   
    68    31    33 1   
    69    31    64 1   
    70    32    65 1   
    71    32    66 1   
    72    32    67 1   
    73    33    68 1   
    74    33    69 1   
    75    33    70 1   
    76    35    71 1   
    77    37    38 1   
    78    37    72 1   
    79    38    73 1   
    80    38    74 1   
@<TRIPOS>SUBSTRUCTURE
     1 J5N         1 TEMP              0 ****  ****    0 ROOT
