@<TRIPOS>MOLECULE
J5P
   29    29     1     0     0
SMALL
No Charge or Current Charge


@<TRIPOS>ATOM
      1 C            5.0250    -1.7570     0.1890 c3         1 J5P      -0.177100
      2 O            2.6520    -1.6920     0.6170 o          1 J5P      -0.583100
      3 C1           3.6590    -1.0890     0.2690 c          1 J5P       0.610100
      4 C2           1.5230     0.8820    -1.2080 c          1 J5P       0.607100
      5 C3           0.2360     1.7020    -1.0520 c3         1 J5P      -0.143400
      6 C4          -0.9810     0.8100    -0.7000 c5         1 J5P      -0.043700
      7 C5          -2.3130     1.6070    -0.5420 c5         1 J5P      -0.068400
      8 C6          -3.3560     0.5010    -0.1970 c5         1 J5P      -0.287400
      9 S           -2.5320    -0.5900     1.0540 s6         1 J5P       1.044000
     10 O2          -2.9390    -0.2070     2.4120 o          1 J5P      -0.510500
     11 C7          -0.8510     0.0960     0.6820 c5         1 J5P      -0.290400
     12 O1           1.7340     0.1710    -2.1830 o          1 J5P      -0.571100
     13 N1           2.4490     1.0350    -0.1860 ns         1 J5P      -0.372500
     14 N            3.6440     0.2550    -0.0710 ns         1 J5P      -0.378500
     15 H1           4.9940    -2.8140     0.4760 hc         1 J5P       0.066033
     16 H2           5.4290    -1.6230    -0.8210 hc         1 J5P       0.066033
     17 H3           5.7360    -1.1910     0.8020 hc         1 J5P       0.066033
     18 H4           0.3680     2.4550    -0.2660 hc         1 J5P       0.065200
     19 H5           0.0390     2.2080    -2.0050 hc         1 J5P       0.065200
     20 H6          -1.0770     0.0740    -1.5110 hc         1 J5P       0.085700
     21 H7          -2.2410     2.3590     0.2550 hc         1 J5P       0.064200
     22 H8          -2.5830     2.1430    -1.4590 hc         1 J5P       0.064200
     23 H9          -4.2820     0.8840     0.2460 h1         1 J5P       0.110700
     24 H10         -3.5920    -0.1410    -1.0540 h1         1 J5P       0.110700
     25 H11         -0.1430    -0.7410     0.6910 h1         1 J5P       0.120700
     26 H12         -0.6210     0.7870     1.5010 h1         1 J5P       0.120700
     27 H13          2.1940     1.6130     0.6110 hn         1 J5P       0.334500
     28 H14          4.5100     0.6780    -0.3960 hn         1 J5P       0.336500
     29 O3          -2.6150    -1.9930     0.6260 o          1 J5P      -0.510500
@<TRIPOS>BOND
     1     1     3 1   
     2     1    15 1   
     3     1    16 1   
     4     1    17 1   
     5     2     3 2   
     6     3    14 1   
     7     4     5 1   
     8     4    12 2   
     9     4    13 1   
    10     5     6 1   
    11     5    18 1   
    12     5    19 1   
    13     6     7 1   
    14     6    11 1   
    15     6    20 1   
    16     7     8 1   
    17     7    21 1   
    18     7    22 1   
    19     8     9 1   
    20     8    23 1   
    21     8    24 1   
    22     9    10 2   
    23     9    11 1   
    24     9    29 2   
    25    11    25 1   
    26    11    26 1   
    27    13    14 1   
    28    13    27 1   
    29    14    28 1   
@<TRIPOS>SUBSTRUCTURE
     1 J5P         1 TEMP              0 ****  ****    0 ROOT
