@<TRIPOS>MOLECULE
J5P
   29    29     1     0     0
SMALL
abcg2


@<TRIPOS>ATOM
      1 C            4.8680    -1.6870     0.1560 c3         1 J5P      -0.177100
      2 O            2.5310    -1.5170     0.6650 o          1 J5P      -0.583100
      3 C1           3.5480    -0.9760     0.2770 c          1 J5P       0.610100
      4 C2           1.5440     0.9510    -1.1000 c          1 J5P       0.607100
      5 C3           0.2700     1.7320    -0.8830 c3         1 J5P      -0.143400
      6 C4          -0.9150     0.7890    -0.7010 c5         1 J5P      -0.043700
      7 C5          -2.2440     1.5400    -0.5700 c5         1 J5P      -0.068400
      8 C6          -3.2940     0.4960    -0.2220 c5         1 J5P      -0.287400
      9 S           -2.4640    -0.6030     0.9520 s6         1 J5P       1.044000
     10 O2          -2.8000    -0.2090     2.3210 o          1 J5P      -0.510500
     11 C7          -0.7800    -0.0640     0.5600 c5         1 J5P      -0.290400
     12 O1           1.7290     0.2480    -2.0740 o          1 J5P      -0.571100
     13 N1           2.4550     1.0850    -0.1050 ns         1 J5P      -0.372500
     14 N            3.5860     0.3340    -0.0820 ns         1 J5P      -0.378500
     15 H1           5.0860    -2.2050     1.0880 hc         1 J5P       0.066033
     16 H2           4.7950    -2.4390    -0.6300 hc         1 J5P       0.066033
     17 H3           5.6990    -1.0250    -0.0790 hc         1 J5P       0.066033
     18 H4           0.3440     2.4010    -0.0230 hc         1 J5P       0.065200
     19 H5           0.1020     2.3550    -1.7640 hc         1 J5P       0.065200
     20 H6          -0.9770     0.1280    -1.5710 hc         1 J5P       0.085700
     21 H7          -2.1760     2.2940     0.2170 hc         1 J5P       0.064200
     22 H8          -2.5050     2.0490    -1.4970 hc         1 J5P       0.064200
     23 H9          -4.1920     0.8900     0.2520 h1         1 J5P       0.110700
     24 H10         -3.5710    -0.1000    -1.0910 h1         1 J5P       0.110700
     25 H11         -0.1400    -0.9380     0.4500 h1         1 J5P       0.120700
     26 H12         -0.4300     0.5300     1.4070 h1         1 J5P       0.120700
     27 H13          2.2410     1.6170     0.7250 hn         1 J5P       0.334500
     28 H14          4.4200     0.7450    -0.4710 hn         1 J5P       0.336500
     29 O3          -2.6610    -2.0010     0.5720 o          1 J5P      -0.510500
@<TRIPOS>BOND
     1     1     3 1   
     2     1    15 1   
     3     1    16 1   
     4     1    17 1   
     5     2     3 2   
     6     3    14 1   
     7     4     5 1   
     8     4    12 2   
     9     4    13 1   
    10     5     6 1   
    11     5    18 1   
    12     5    19 1   
    13     6     7 1   
    14     6    11 1   
    15     6    20 1   
    16     7     8 1   
    17     7    21 1   
    18     7    22 1   
    19     8     9 1   
    20     8    23 1   
    21     8    24 1   
    22     9    10 2   
    23     9    11 1   
    24     9    29 2   
    25    11    25 1   
    26    11    26 1   
    27    13    14 1   
    28    13    27 1   
    29    14    28 1   
@<TRIPOS>SUBSTRUCTURE
     1 J5P         1 TEMP              0 ****  ****    0 ROOT
