@<TRIPOS>MOLECULE
J5Q
   52    55     1     0     0
SMALL
abcg2


@<TRIPOS>ATOM
      1 C20         -4.9670    -0.4880     0.0060 ca         1 J5Q      -0.075500
      2 C21         -6.0610    -0.4310    -0.8590 ca         1 J5Q      -0.126000
      3 C22         -7.2980    -0.8310    -0.4000 ca         1 J5Q       0.169000
      4 C24         -7.5070    -1.2870     0.8870 ca         1 J5Q      -0.151000
      5 C26         -5.1550    -0.9480     1.3100 ca         1 J5Q      -0.125000
      6 C02          7.2040    -0.9470    -0.5450 ca         1 J5Q      -0.058300
      7 C03          6.5610    -2.1830    -0.5170 ca         1 J5Q      -0.115000
      8 C04          5.2580    -2.3040    -0.0550 ca         1 J5Q      -0.076500
      9 C05          6.5020     0.1650    -0.0850 ca         1 J5Q      -0.115000
     10 C06          5.2090     0.0560     0.4060 ca         1 J5Q      -0.076500
     11 C07          4.5750    -1.1850     0.4090 ca         1 J5Q      -0.121000
     12 C09          2.0430    -0.0610     0.2190 c6         1 J5Q       0.246300
     13 C11          1.5600     2.2200     0.3730 c6         1 J5Q       0.150300
     14 C12          1.9180     3.4460     1.1830 c3         1 J5Q       0.172600
     15 C14          0.0560     2.0060     0.2480 c6         1 J5Q       0.132300
     16 C16         -0.1670     0.7160    -0.5540 c6         1 J5Q       0.066300
     17 C18         -2.4450    -0.0510     0.2030 cc         1 J5Q      -0.182000
     18 C19         -3.6500    -0.0670    -0.4600 cd         1 J5Q       0.244500
     19 C25         -6.4130    -1.3410     1.7400 ca         1 J5Q      -0.087000
     20 C29          0.5730    -0.4730     0.0550 c6         1 J5Q       0.150300
     21 F23         -8.3420    -0.7710    -1.2430 f          1 J5Q      -0.179000
     22 N17         -1.5790     0.4300    -0.7020 na         1 J5Q       0.134800
     23 N27         -3.4330     0.4060    -1.7090 nd         1 J5Q      -0.349000
     24 N28         -2.1910     0.7010    -1.8450 nc         1 J5Q      -0.198800
     25 O10          2.1540     1.0950     0.9950 os         1 J5Q      -0.406000
     26 O15         -0.5280     1.9060     1.5220 oh         1 J5Q      -0.706000
     27 O30          0.4210    -1.5500    -0.8210 oh         1 J5Q      -0.705000
     28 S08          2.9370    -1.3970     1.0490 ss         1 J5Q      -0.160000
     29 H211        -5.9470    -0.0800    -1.8760 ha         1 J5Q       0.152000
     30 H241        -8.4920    -1.5910     1.2150 ha         1 J5Q       0.132000
     31 H261        -4.3230    -0.9990     1.9990 ha         1 J5Q       0.112000
     32 H011         9.3240    -1.0200    -0.2190 hc         1 J5Q       0.045033
     33 H013         8.8340    -1.5350    -1.8240 hc         1 J5Q       0.045033
     34 H012         8.8260     0.1790    -1.4030 hc         1 J5Q       0.045033
     35 H041         4.7730    -3.2720    -0.0660 ha         1 J5Q       0.132000
     36 H051         6.9760     1.1400    -0.0990 ha         1 J5Q       0.115500
     37 H061         4.7010     0.9380     0.7750 ha         1 J5Q       0.132000
     38 H091         2.4890     0.0780    -0.7770 h2         1 J5Q       0.071700
     39 H111         1.9620     2.3450    -0.6450 h1         1 J5Q       0.057700
     40 H121         1.3590     4.2970     0.7740 h1         1 J5Q       0.036200
     41 H122         1.5890     3.3110     2.2190 h1         1 J5Q       0.036200
     42 H141        -0.3670     2.8380    -0.3250 h1         1 J5Q       0.060700
     43 H161         0.2090     0.8750    -1.5690 h1         1 J5Q       0.107700
     44 H181        -2.1570    -0.3490     1.1950 h4         1 J5Q       0.176000
     45 H251        -6.5460    -1.6940     2.7540 ha         1 J5Q       0.116000
     46 H291         0.1650    -0.6900     1.0520 h1         1 J5Q       0.069700
     47 H151        -1.3200     2.4480     1.5510 ho         1 J5Q       0.514000
     48 H301         0.8480    -2.3240    -0.4380 ho         1 J5Q       0.528000
     49 O13          3.3090     3.6400     1.0920 oh         1 J5Q      -0.714000
     50 H031         7.0770    -3.0660    -0.8750 ha         1 J5Q       0.115500
     51 C01          8.6180    -0.8230    -1.0290 c3         1 J5Q      -0.049800
     52 H131         3.5430     4.3800     1.6610 ho         1 J5Q       0.510000
@<TRIPOS>BOND
     1     1     2 ar  
     2     1     5 ar  
     3     1    18 1   
     4     2     3 ar  
     5     2    29 1   
     6     3     4 ar  
     7     3    21 1   
     8     4    19 ar  
     9     4    30 1   
    10     5    19 ar  
    11     5    31 1   
    12     6     7 ar  
    13     6     9 ar  
    14     6    51 1   
    15     7     8 ar  
    16     7    50 1   
    17     8    11 ar  
    18     8    35 1   
    19     9    10 ar  
    20     9    36 1   
    21    10    11 ar  
    22    10    37 1   
    23    11    28 1   
    24    12    20 1   
    25    12    25 1   
    26    12    28 1   
    27    12    38 1   
    28    13    14 1   
    29    13    15 1   
    30    13    25 1   
    31    13    39 1   
    32    14    40 1   
    33    14    41 1   
    34    14    49 1   
    35    15    16 1   
    36    15    26 1   
    37    15    42 1   
    38    16    20 1   
    39    16    22 1   
    40    16    43 1   
    41    17    18 2   
    42    17    22 1   
    43    17    44 1   
    44    18    23 1   
    45    19    45 1   
    46    20    27 1   
    47    20    46 1   
    48    22    24 1   
    49    23    24 2   
    50    26    47 1   
    51    27    48 1   
    52    32    51 1   
    53    33    51 1   
    54    34    51 1   
    55    49    52 1   
@<TRIPOS>SUBSTRUCTURE
     1 J5Q         1 TEMP              0 ****  ****    0 ROOT
