@<TRIPOS>MOLECULE
J5Q
   52    55     1     0     0
SMALL
No Charge or Current Charge


@<TRIPOS>ATOM
      1 C20         -5.1300    -0.3640     0.0980 ca         1 J5Q      -0.075500
      2 C21         -6.3640    -0.0740    -0.5270 ca         1 J5Q      -0.126000
      3 C22         -7.5620    -0.5960    -0.0140 ca         1 J5Q       0.169000
      4 C24         -7.5520    -1.4120     1.1260 ca         1 J5Q      -0.151000
      5 C26         -5.1310    -1.1870     1.2470 ca         1 J5Q      -0.125000
      6 C02          7.4000    -0.8510    -0.2500 ca         1 J5Q      -0.058300
      7 C03          6.9420    -2.0660     0.2900 ca         1 J5Q      -0.115000
      8 C04          5.5640    -2.3070     0.4270 ca         1 J5Q      -0.076500
      9 C05          6.4630     0.1200    -0.6470 ca         1 J5Q      -0.115000
     10 C06          5.0840    -0.1190    -0.5120 ca         1 J5Q      -0.076500
     11 C07          4.6240    -1.3390     0.0290 ca         1 J5Q      -0.121000
     12 C09          1.9490    -0.2250    -0.3090 c6         1 J5Q       0.246300
     13 C11          1.6360     2.1170     0.2400 c6         1 J5Q       0.150300
     14 C12          2.1740     3.2300     1.1980 c3         1 J5Q       0.172600
     15 C14          0.0770     2.0000     0.2550 c6         1 J5Q       0.132300
     16 C16         -0.3300     0.8600    -0.7300 c6         1 J5Q       0.066300
     17 C18         -2.6040    -0.0050     0.0540 cc         1 J5Q      -0.182000
     18 C19         -3.8650     0.1840    -0.4380 cd         1 J5Q       0.244500
     19 C25         -6.3330    -1.7080     1.7580 ca         1 J5Q      -0.087000
     20 C29          0.4040    -0.4750    -0.3830 c6         1 J5Q       0.150300
     21 F23         -8.7340    -0.3110    -0.6230 f          1 J5Q      -0.179000
     22 N17         -1.8050     0.7120    -0.8080 na         1 J5Q       0.134800
     23 N27         -3.7980     0.9960    -1.5520 nd         1 J5Q      -0.349000
     24 N28         -2.5530     1.3190    -1.7750 nc         1 J5Q      -0.198800
     25 O10          2.2350     0.8500     0.6130 os         1 J5Q      -0.406000
     26 O15         -0.4160     1.7320     1.5890 oh         1 J5Q      -0.706000
     27 O30          0.0850    -1.4930    -1.3600 oh         1 J5Q      -0.705000
     28 S08          2.8790    -1.7360     0.2340 ss         1 J5Q      -0.160000
     29 H211        -6.4050     0.5550    -1.4130 ha         1 J5Q       0.152000
     30 H241        -8.4840    -1.8120     1.5170 ha         1 J5Q       0.132000
     31 H261        -4.2000    -1.4300     1.7530 ha         1 J5Q       0.112000
     32 H011         9.2910    -0.1070     0.5060 hc         1 J5Q       0.045033
     33 H013         9.4480    -1.5170    -0.5560 hc         1 J5Q       0.045033
     34 H012         9.0990     0.0720    -1.2470 hc         1 J5Q       0.045033
     35 H041         5.2250    -3.2530     0.8450 ha         1 J5Q       0.132000
     36 H051         6.8040     1.0670    -1.0620 ha         1 J5Q       0.115500
     37 H061         4.3950     0.6570    -0.8300 ha         1 J5Q       0.132000
     38 H091         2.3190     0.0320    -1.3120 h2         1 J5Q       0.071700
     39 H111         1.9640     2.3740    -0.7780 h1         1 J5Q       0.057700
     40 H121         1.6840     4.1760     0.9310 h1         1 J5Q       0.036200
     41 H122         1.8680     2.9820     2.2230 h1         1 J5Q       0.036200
     42 H141        -0.3390     2.9490    -0.1170 h1         1 J5Q       0.060700
     43 H161         0.0080     1.1590    -1.7320 h1         1 J5Q       0.107700
     44 H181        -2.2320    -0.5620     0.9020 h4         1 J5Q       0.176000
     45 H251        -6.3180    -2.3400     2.6430 ha         1 J5Q       0.116000
     46 H291         0.0760    -0.8000     0.6170 h1         1 J5Q       0.069700
     47 H151        -1.3040     2.1530     1.6690 ho         1 J5Q       0.514000
     48 H301         0.4330    -2.3510    -1.0190 ho         1 J5Q       0.528000
     49 O13          3.6070     3.3840     1.1360 oh         1 J5Q      -0.714000
     50 H031         7.6540    -2.8260     0.6050 ha         1 J5Q       0.115500
     51 C01          8.8910    -0.5870    -0.3950 c3         1 J5Q      -0.049800
     52 H131         3.8570     4.0290     1.8380 ho         1 J5Q       0.510000
@<TRIPOS>BOND
     1     1     2 ar  
     2     1     5 ar  
     3     1    18 1   
     4     2     3 ar  
     5     2    29 1   
     6     3     4 ar  
     7     3    21 1   
     8     4    19 ar  
     9     4    30 1   
    10     5    19 ar  
    11     5    31 1   
    12     6     7 ar  
    13     6     9 ar  
    14     6    51 1   
    15     7     8 ar  
    16     7    50 1   
    17     8    11 ar  
    18     8    35 1   
    19     9    10 ar  
    20     9    36 1   
    21    10    11 ar  
    22    10    37 1   
    23    11    28 1   
    24    12    20 1   
    25    12    25 1   
    26    12    28 1   
    27    12    38 1   
    28    13    14 1   
    29    13    15 1   
    30    13    25 1   
    31    13    39 1   
    32    14    40 1   
    33    14    41 1   
    34    14    49 1   
    35    15    16 1   
    36    15    26 1   
    37    15    42 1   
    38    16    20 1   
    39    16    22 1   
    40    16    43 1   
    41    17    18 2   
    42    17    22 1   
    43    17    44 1   
    44    18    23 1   
    45    19    45 1   
    46    20    27 1   
    47    20    46 1   
    48    22    24 1   
    49    23    24 2   
    50    26    47 1   
    51    27    48 1   
    52    32    51 1   
    53    33    51 1   
    54    34    51 1   
    55    49    52 1   
@<TRIPOS>SUBSTRUCTURE
     1 J5Q         1 TEMP              0 ****  ****    0 ROOT
