@<TRIPOS>MOLECULE
J5R
   25    27     1     0     0
SMALL
No Charge or Current Charge


@<TRIPOS>ATOM
      1 CAD        -21.9400     0.7540    -2.3580 c          1 J5R       0.713600
      2 CAE        -21.1070    -0.2830    -8.8900 ca         1 J5R      -0.228600
      3 CAF        -21.5670     1.0090    -8.5590 ca         1 J5R       0.193100
      4 CAG        -20.9000    -0.5940   -10.2620 ca         1 J5R       0.200000
      5 CAH        -21.8160     1.9640    -9.5570 ca         1 J5R      -0.159000
      6 CAI        -21.1530     0.3730   -11.2510 ca         1 J5R      -0.175000
      7 CAJ        -21.6100     1.6510   -10.9050 ca         1 J5R      -0.057000
      8 CAK        -21.1330    -0.7590    -6.3750 ca         1 J5R      -0.260600
      9 CAL        -21.5890     0.5530    -6.1860 ca         1 J5R       0.124100
     10 CAM        -20.8630    -1.2530    -7.7650 c          1 J5R       0.612300
     11 CAO        -21.1970    -1.0990    -3.9560 ca         1 J5R      -0.117000
     12 CAP        -21.6580     0.2240    -3.7570 ca         1 J5R      -0.080600
     13 CAQ        -20.9370    -1.5860    -5.2480 ca         1 J5R      -0.061000
     14 CAR        -21.8490     1.0410    -4.8960 ca         1 J5R      -0.119000
     15 OAC        -22.3380     1.9060    -2.2380 o          1 J5R      -0.705500
     16 OAN        -21.7910     1.3850    -7.2560 os         1 J5R      -0.217200
     17 OAS        -21.7600     0.0120    -1.4020 o          1 J5R      -0.705500
     18 H1         -22.1700     2.9540    -9.2780 ha         1 J5R       0.134000
     19 H2         -20.9920     0.1260   -12.2970 ha         1 J5R       0.122000
     20 H3         -21.8030     2.3930   -11.6770 ha         1 J5R       0.111000
     21 H4         -21.0380    -1.7570    -3.1040 ha         1 J5R       0.138000
     22 H5         -20.5830    -2.6080    -5.3670 ha         1 J5R       0.115000
     23 H6         -22.2020     2.0630    -4.7840 ha         1 J5R       0.150000
     24 OAA        -20.4640    -2.3970    -7.9390 o          1 J5R      -0.544100
     25 ClA        -20.3280    -2.1610   -10.8420 cl         1 J5R      -0.182000
@<TRIPOS>BOND
     1     1    12 1   
     2     1    15 1   
     3     1    17 1   
     4     2     3 ar  
     5     2     4 ar  
     6     2    10 1   
     7     3     5 ar  
     8     3    16 1   
     9     4     6 ar  
    10     4    25 1   
    11     5     7 ar  
    12     5    18 1   
    13     6     7 ar  
    14     6    19 1   
    15     7    20 1   
    16     8     9 ar  
    17     8    10 1   
    18     8    13 ar  
    19     9    14 ar  
    20     9    16 1   
    21    10    24 2   
    22    11    12 ar  
    23    11    13 ar  
    24    11    21 1   
    25    12    14 ar  
    26    13    22 1   
    27    14    23 1   
@<TRIPOS>SUBSTRUCTURE
     1 J5R         1 TEMP              0 ****  ****    0 ROOT
