@<TRIPOS>MOLECULE
J5R
   25    27     1     0     0
SMALL
bcc


@<TRIPOS>ATOM
      1 CAD        -21.9440     0.7750    -2.4340 c          1 J5R       0.924200
      2 CAE        -21.1040    -0.3080    -8.8440 ca         1 J5R      -0.228600
      3 CAF        -21.5560     0.9800    -8.5190 ca         1 J5R       0.193100
      4 CAG        -20.9180    -0.5800   -10.2140 ca         1 J5R       0.108400
      5 CAH        -21.8050     1.9500    -9.4860 ca         1 J5R      -0.177000
      6 CAI        -21.1600     0.3710   -11.1820 ca         1 J5R      -0.193000
      7 CAJ        -21.6030     1.6370   -10.8100 ca         1 J5R      -0.075000
      8 CAK        -21.1280    -0.7650    -6.4080 ca         1 J5R      -0.260600
      9 CAL        -21.5830     0.5330    -6.2140 ca         1 J5R       0.124100
     10 CAM        -20.8540    -1.2730    -7.7560 c          1 J5R       0.612300
     11 CAO        -21.1960    -1.0820    -4.0170 ca         1 J5R      -0.135000
     12 CAP        -21.6570     0.2300    -3.8370 ca         1 J5R      -0.080600
     13 CAQ        -20.9400    -1.5700    -5.2780 ca         1 J5R      -0.079000
     14 CAR        -21.8520     1.0330    -4.9460 ca         1 J5R      -0.137000
     15 OAC        -22.4130     1.9260    -2.3800 o          1 J5R      -0.810800
     16 OAN        -21.7810     1.3720    -7.2530 os         1 J5R      -0.217200
     17 OAS        -21.6790     0.0140    -1.4870 o          1 J5R      -0.810800
     18 H1         -22.1500     2.9290    -9.1840 ha         1 J5R       0.152000
     19 H2         -21.0060     0.1340   -12.2250 ha         1 J5R       0.140000
     20 H3         -21.7910     2.3800   -11.5730 ha         1 J5R       0.129000
     21 H4         -21.0440    -1.7130    -3.1530 ha         1 J5R       0.156000
     22 H5         -20.5880    -2.5850    -5.4090 ha         1 J5R       0.133000
     23 H6         -22.2060     2.0490    -4.8310 ha         1 J5R       0.168000
     24 OAA        -20.4500    -2.4060    -7.9360 o          1 J5R      -0.544100
     25 CLA        -20.3800    -2.1210   -10.7750 cl         1 J5R      -0.090400
@<TRIPOS>BOND
     1     1    12 1   
     2     1    15 1   
     3     1    17 1   
     4     2     3 ar  
     5     2     4 ar  
     6     2    10 1   
     7     3     5 ar  
     8     3    16 1   
     9     4     6 ar  
    10     4    25 1   
    11     5     7 ar  
    12     5    18 1   
    13     6     7 ar  
    14     6    19 1   
    15     7    20 1   
    16     8     9 ar  
    17     8    10 1   
    18     8    13 ar  
    19     9    14 ar  
    20     9    16 1   
    21    10    24 2   
    22    11    12 ar  
    23    11    13 ar  
    24    11    21 1   
    25    12    14 ar  
    26    13    22 1   
    27    14    23 1   
@<TRIPOS>SUBSTRUCTURE
     1 J5R         1 TEMP              0 ****  ****    0 ROOT
