@<TRIPOS>MOLECULE
J5S
   23    23     1     0     0
SMALL
No Charge or Current Charge


@<TRIPOS>ATOM
      1 C4           1.2700     1.3790     0.1050 ca         1 J5S      -0.063000
      2 C5           2.6500     1.1100     0.1410 ca         1 J5S      -0.124500
      3 C6           3.1220    -0.2100     0.0250 ca         1 J5S      -0.048300
      4 C7           4.6140    -0.4990     0.0680 c3         1 J5S      -0.052800
      5 C8           2.1980    -1.2600    -0.1250 ca         1 J5S      -0.124500
      6 O           -3.8600     1.0450    -0.6450 o          1 J5S      -0.543100
      7 C1          -3.3740    -0.0090    -0.2650 c          1 J5S       0.703500
      8 C           -4.2210    -1.1880     0.1950 c3         1 J5S      -0.174100
      9 N           -2.0190    -0.2770    -0.2090 ne         1 J5S      -0.684100
     10 C3           0.3390     0.3300    -0.0480 ca         1 J5S      -0.181900
     11 C9           0.8180    -0.9950    -0.1620 ca         1 J5S      -0.063000
     12 H1           0.9270     2.4080     0.1960 ha         1 J5S       0.124500
     13 H2           3.3530     1.9310     0.2610 ha         1 J5S       0.116000
     14 H3           4.9470    -0.6760     1.0970 hc         1 J5S       0.046033
     15 H4           4.8670    -1.3860    -0.5240 hc         1 J5S       0.046033
     16 H5           5.1960     0.3400    -0.3330 hc         1 J5S       0.046033
     17 H6           2.5490    -2.2850    -0.2120 ha         1 J5S       0.116000
     18 H7          -5.2950    -0.9790     0.1470 hc         1 J5S       0.065033
     19 H8          -3.9520    -2.0710    -0.3950 hc         1 J5S       0.065033
     20 H9          -3.9080    -1.4790     1.2040 hc         1 J5S       0.065033
     21 H10         -1.3740     1.6970     0.0250 h4         1 J5S      -0.022200
     22 H11          0.1250    -1.8260    -0.2790 ha         1 J5S       0.124500
     23 C2          -1.1080     0.6410    -0.0820 cf         1 J5S       0.564800
@<TRIPOS>BOND
     1     1     2 ar  
     2     1    10 ar  
     3     1    12 1   
     4     2     3 ar  
     5     2    13 1   
     6     3     4 1   
     7     3     5 ar  
     8     4    14 1   
     9     4    15 1   
    10     4    16 1   
    11     5    11 ar  
    12     5    17 1   
    13     6     7 2   
    14     7     8 1   
    15     7     9 1   
    16     8    18 1   
    17     8    19 1   
    18     8    20 1   
    19     9    23 2   
    20    10    11 ar  
    21    10    23 1   
    22    11    22 1   
    23    21    23 1   
@<TRIPOS>SUBSTRUCTURE
     1 J5S         1 TEMP              0 ****  ****    0 ROOT
