@<TRIPOS>MOLECULE
J5S
   23    23     1     0     0
SMALL
bcc


@<TRIPOS>ATOM
      1 C4           1.1870     1.2460     0.2760 ca         1 J5S      -0.081000
      2 C5           2.5580     1.0480     0.3110 ca         1 J5S      -0.142500
      3 C6           3.1060    -0.1960     0.0040 ca         1 J5S      -0.048300
      4 C7           4.5860    -0.4230     0.0740 c3         1 J5S      -0.052800
      5 C8           2.2400    -1.2360    -0.3450 ca         1 J5S      -0.142500
      6 O           -3.7350     0.6590    -1.3180 o          1 J5S      -0.543100
      7 C1          -3.3050    -0.1380    -0.5140 c          1 J5S       0.703500
      8 C           -4.1660    -0.9500     0.4090 c3         1 J5S      -0.174100
      9 N           -1.9540    -0.4380    -0.4210 ne         1 J5S      -0.684100
     10 C3           0.3290     0.2050    -0.0720 ca         1 J5S      -0.181900
     11 C9           0.8720    -1.0440    -0.3830 ca         1 J5S      -0.081000
     12 H1           0.7810     2.2210     0.5200 ha         1 J5S       0.142500
     13 H2           3.2100     1.8710     0.5780 ha         1 J5S       0.134000
     14 H3           4.8790    -0.7230     1.0830 hc         1 J5S       0.046033
     15 H4           4.9030    -1.2140    -0.6040 hc         1 J5S       0.046033
     16 H5           5.1420     0.4820    -0.1690 hc         1 J5S       0.046033
     17 H6           2.6470    -2.2080    -0.5940 ha         1 J5S       0.134000
     18 H7          -5.2200    -0.7300     0.2590 hc         1 J5S       0.065033
     19 H8          -3.9910    -2.0140     0.2500 hc         1 J5S       0.065033
     20 H9          -3.9000    -0.7380     1.4460 hc         1 J5S       0.065033
     21 H10         -1.4170     1.4690     0.1610 h4         1 J5S      -0.022200
     22 H11          0.2180    -1.8630    -0.6540 ha         1 J5S       0.142500
     23 C2          -1.1070     0.4550    -0.1100 cf         1 J5S       0.564800
@<TRIPOS>BOND
     1     1     2 ar  
     2     1    10 ar  
     3     1    12 1   
     4     2     3 ar  
     5     2    13 1   
     6     3     4 1   
     7     3     5 ar  
     8     4    14 1   
     9     4    15 1   
    10     4    16 1   
    11     5    11 ar  
    12     5    17 1   
    13     6     7 2   
    14     7     8 1   
    15     7     9 1   
    16     8    18 1   
    17     8    19 1   
    18     8    20 1   
    19     9    23 2   
    20    10    11 ar  
    21    10    23 1   
    22    11    22 1   
    23    21    23 1   
@<TRIPOS>SUBSTRUCTURE
     1 J5S         1 TEMP              0 ****  ****    0 ROOT
