@<TRIPOS>MOLECULE
J5T
   74    78     1     0     0
SMALL
No Charge or Current Charge


@<TRIPOS>ATOM
      1 C1          -0.3090     1.8770    -0.4970 ca         1 J5T      -0.142600
      2 C2          -0.8410     0.5730    -0.6390 ca         1 J5T      -0.079000
      3 C3          -1.2050     2.9680    -0.5200 ca         1 J5T      -0.079000
      4 O4           6.5650    -3.9630    -0.2180 oh         1 J5T      -0.699000
      5 C7           1.1740     2.1320    -0.3050 c          1 J5T       0.618700
      6 C8           3.4630     1.0430    -0.1130 c3         1 J5T       0.044700
      7 C9           4.1060    -0.2670    -0.6810 c          1 J5T       0.598100
      8 C10          6.1820    -1.6710    -1.0900 c5         1 J5T       0.075700
      9 C11          6.4430     0.7600    -0.7220 c5         1 J5T       0.101000
     10 C12          7.6410     0.2230    -1.5520 c5         1 J5T       0.110300
     11 C13          7.6880    -1.2900    -1.1870 c5         1 J5T       0.140300
     12 C14          6.1810    -2.6260     0.1470 c5         1 J5T       0.130300
     13 C15          7.2400    -1.9190     1.0480 c5         1 J5T       0.106600
     14 C16         -4.5570     1.2380    -1.0050 cc         1 J5T       0.356500
     15 C19         -6.7840    -2.0810     0.2920 c6         1 J5T       0.212300
     16 C20         -8.7040    -0.9400    -0.8550 c6         1 J5T       0.212300
     17 C21         -9.6770    -1.6810     0.1150 c6         1 J5T       0.153800
     18 C22         -7.8100    -2.7880     1.2310 c6         1 J5T       0.153800
     19 C17         -5.3510     2.0730    -1.7670 cd         1 J5T       0.007000
     20 S1          -7.0100     1.5230    -1.7750 ss         1 J5T      -0.110400
     21 C18         -6.4490     0.1880    -0.7620 cd         1 J5T       0.727300
     22 N4          -7.3160    -0.8100    -0.3030 nh         1 J5T      -0.754300
     23 N5          -9.1410    -2.9920     0.5860 n3         1 J5T      -0.712600
     24 N3          -5.1700     0.1480    -0.4410 nc         1 J5T      -0.729000
     25 C5          -3.1100     1.4720    -0.8730 ca         1 J5T      -0.097500
     26 C4          -2.2220     0.3780    -0.8130 ca         1 J5T      -0.095000
     27 C6          -2.5850     2.7690    -0.6950 ca         1 J5T      -0.095000
     28 O2           1.6260     3.2580    -0.1450 o          1 J5T      -0.612100
     29 N1           1.9970     1.0280    -0.3250 ns         1 J5T      -0.498900
     30 C23          3.8340     1.3540     1.3740 c3         1 J5T      -0.084400
     31 C26          3.3370    -0.9620     2.4370 c3         1 J5T      -0.092600
     32 C25          3.4290     1.1220     3.8810 c3         1 J5T      -0.092600
     33 N2           5.5130    -0.3990    -0.6890 n          1 J5T      -0.411800
     34 Cl           9.1990     1.1310    -1.2910 cl         1 J5T      -0.228000
     35 O1           8.2730    -1.4810     0.1350 os         1 J5T      -0.425000
     36 H1          -0.2020    -0.3060    -0.6110 ha         1 J5T       0.125500
     37 H2          -0.8340     3.9840    -0.3940 ha         1 J5T       0.125500
     38 H3           6.5710    -4.5020     0.6070 ho         1 J5T       0.510000
     39 H4           3.8680     1.8560    -0.7280 h1         1 J5T       0.076700
     40 H5           5.7670    -2.1120    -2.0060 h1         1 J5T       0.106700
     41 H6           6.7660     1.0360     0.2910 h1         1 J5T       0.072200
     42 H7           6.0030     1.6450    -1.1990 h1         1 J5T       0.072200
     43 H8           7.4320     0.3350    -2.6230 h1         1 J5T       0.088700
     44 H9           8.2360    -1.8960    -1.9210 h1         1 J5T       0.078700
     45 H10          5.1950    -2.6440     0.6330 h1         1 J5T       0.058700
     46 H11          6.8160    -1.0420     1.5570 h1         1 J5T       0.059200
     47 H12          7.6700    -2.5820     1.8110 h1         1 J5T       0.059200
     48 H13         -5.8720    -1.8970     0.8780 h1         1 J5T       0.058700
     49 H14         -6.5100    -2.7760    -0.5150 h1         1 J5T       0.058700
     50 H15         -8.6700    -1.4910    -1.8070 h1         1 J5T       0.058700
     51 H16         -9.1430     0.0440    -1.0700 h1         1 J5T       0.058700
     52 H17         -9.8720    -1.0240     0.9760 h1         1 J5T       0.044200
     53 H18        -10.6380    -1.8240    -0.3990 h1         1 J5T       0.044200
     54 H19         -7.3860    -3.7530     1.5450 h1         1 J5T       0.044200
     55 H20         -7.9230    -2.1790     2.1410 h1         1 J5T       0.044200
     56 H21          2.0020     0.7170     2.3450 hc         1 J5T       0.054700
     57 H22        -11.0430    -3.8880     0.9360 h1         1 J5T       0.034367
     58 H23         -9.6840    -4.6940     1.7480 h1         1 J5T       0.034367
     59 H24        -10.3000    -3.1450     2.3730 h1         1 J5T       0.034367
     60 H26         -2.6040    -0.6370    -0.9130 ha         1 J5T       0.132000
     61 H27         -3.2440     3.6340    -0.6770 ha         1 J5T       0.132000
     62 H28          1.5600     0.1330    -0.5060 hn         1 J5T       0.345500
     63 H29          4.9110     1.2300     1.5260 hc         1 J5T       0.055700
     64 H30          3.6410     2.4210     1.5380 hc         1 J5T       0.055700
     65 H31          2.8660    -1.4600     3.2930 hc         1 J5T       0.034533
     66 H32          2.9120    -1.4090     1.5320 hc         1 J5T       0.034533
     67 H33          4.4110    -1.1790     2.4670 hc         1 J5T       0.034533
     68 H34          3.1930     2.1910     3.9420 hc         1 J5T       0.034533
     69 H35          2.8560     0.6070     4.6620 hc         1 J5T       0.034533
     70 H36          4.4970     0.9930     4.0980 hc         1 J5T       0.034533
     71 F2          -4.9330     3.1410    -2.4750 f          1 J5T      -0.134000
     72 O3           3.4060    -1.1950    -1.0740 o          1 J5T      -0.601100
     73 C24          3.0790     0.5610     2.4830 c3         1 J5T      -0.056700
     74 C27        -10.0920    -3.7160     1.4580 c3         1 J5T       0.150100
@<TRIPOS>BOND
     1     1     2 ar  
     2     1     3 ar  
     3     1     5 1   
     4     2    26 ar  
     5     2    36 1   
     6     3    27 ar  
     7     3    37 1   
     8     4    12 1   
     9     4    38 1   
    10     5    28 2   
    11     5    29 1   
    12     6     7 1   
    13     6    29 1   
    14     6    30 1   
    15     6    39 1   
    16     7    33 1   
    17     7    72 2   
    18     8    11 1   
    19     8    12 1   
    20     8    33 1   
    21     8    40 1   
    22     9    10 1   
    23     9    33 1   
    24     9    41 1   
    25     9    42 1   
    26    10    11 1   
    27    10    34 1   
    28    10    43 1   
    29    11    35 1   
    30    11    44 1   
    31    12    13 1   
    32    12    45 1   
    33    13    35 1   
    34    13    46 1   
    35    13    47 1   
    36    14    19 2   
    37    14    24 1   
    38    14    25 1   
    39    15    18 1   
    40    15    22 1   
    41    15    48 1   
    42    15    49 1   
    43    16    17 1   
    44    16    22 1   
    45    16    50 1   
    46    16    51 1   
    47    17    23 1   
    48    17    52 1   
    49    17    53 1   
    50    18    23 1   
    51    18    54 1   
    52    18    55 1   
    53    19    20 1   
    54    19    71 1   
    55    20    21 1   
    56    21    22 1   
    57    21    24 2   
    58    23    74 1   
    59    25    26 ar  
    60    25    27 ar  
    61    26    60 1   
    62    27    61 1   
    63    29    62 1   
    64    30    63 1   
    65    30    64 1   
    66    30    73 1   
    67    31    65 1   
    68    31    66 1   
    69    31    67 1   
    70    31    73 1   
    71    32    68 1   
    72    32    69 1   
    73    32    70 1   
    74    32    73 1   
    75    56    73 1   
    76    57    74 1   
    77    58    74 1   
    78    59    74 1   
@<TRIPOS>SUBSTRUCTURE
     1 J5T         1 TEMP              0 ****  ****    0 ROOT
