@<TRIPOS>MOLECULE
J5T
   74    78     1     0     0
SMALL
abcg2


@<TRIPOS>ATOM
      1 C1          -0.2920     1.9670    -0.5030 ca         1 J5T      -0.142600
      2 C2          -0.9490     0.8480     0.0010 ca         1 J5T      -0.079000
      3 C3          -1.0450     2.9380    -1.1580 ca         1 J5T      -0.079000
      4 O4           5.2530    -3.9160    -0.3200 oh         1 J5T      -0.699000
      5 C7           1.1770     2.1860    -0.3470 c          1 J5T       0.618700
      6 C8           3.3420     1.1030     0.0130 c3         1 J5T       0.044700
      7 C9           3.8870    -0.2530    -0.4310 c          1 J5T       0.598100
      8 C10          5.7920    -1.6570    -0.9750 c5         1 J5T       0.075700
      9 C11          6.2250     0.6640    -0.4400 c5         1 J5T       0.101000
     10 C12          7.2610     0.1780    -1.4400 c5         1 J5T       0.110300
     11 C13          7.2640    -1.3220    -1.2450 c5         1 J5T       0.140300
     12 C14          5.8390    -2.7250     0.1320 c5         1 J5T       0.130300
     13 C15          7.3480    -2.8570     0.4090 c5         1 J5T       0.106600
     14 C16         -4.5090     1.4300    -1.0040 cc         1 J5T       0.356500
     15 C19         -6.4640    -2.0420     0.1800 c6         1 J5T       0.212300
     16 C20         -8.4360    -1.0280    -0.8630 c6         1 J5T       0.212300
     17 C21         -9.3030    -1.8520     0.0690 c6         1 J5T       0.153800
     18 C22         -7.3960    -2.8290     1.0780 c6         1 J5T       0.153800
     19 C17         -5.4250     2.2250    -1.6030 cd         1 J5T       0.007000
     20 S1          -7.0180     1.5480    -1.5810 ss         1 J5T      -0.110400
     21 C18         -6.3320     0.1850    -0.7130 cd         1 J5T       0.727300
     22 N4          -7.1190    -0.8280    -0.2850 nh         1 J5T      -0.754300
     23 N5          -8.6520    -3.0980     0.4120 n3         1 J5T      -0.712600
     24 N3          -5.0580     0.2670    -0.5120 nc         1 J5T      -0.729000
     25 C5          -3.0700     1.6550    -0.8420 ca         1 J5T      -0.097500
     26 C4          -2.3140     0.6950    -0.1630 ca         1 J5T      -0.095000
     27 C6          -2.4080     2.7850    -1.3340 ca         1 J5T      -0.095000
     28 O2           1.6600     3.3110    -0.3760 o          1 J5T      -0.612100
     29 N1           1.9150     1.0770    -0.1850 ns         1 J5T      -0.498900
     30 C23          3.7270     1.5070     1.4510 c3         1 J5T      -0.084400
     31 C26          3.4360    -0.6720     2.7570 c3         1 J5T      -0.092600
     32 C25          3.2940     1.5480     3.8990 c3         1 J5T      -0.092600
     33 N2           5.2190    -0.3810    -0.5440 n          1 J5T      -0.411800
     34 CL           8.8520     0.9330    -1.1880 cl         1 J5T      -0.228000
     35 O1           7.9380    -1.6620    -0.0580 os         1 J5T      -0.425000
     36 H1          -0.4130     0.0860     0.5540 ha         1 J5T       0.125500
     37 H2          -0.5600     3.8230    -1.5470 ha         1 J5T       0.125500
     38 H3           5.2400    -4.5430     0.4100 ho         1 J5T       0.510000
     39 H4           3.7660     1.8630    -0.6520 h1         1 J5T       0.076700
     40 H5           5.2710    -2.0260    -1.8590 h1         1 J5T       0.106700
     41 H6           6.6510     0.7190     0.5650 h1         1 J5T       0.072200
     42 H7           5.8340     1.6440    -0.7040 h1         1 J5T       0.072200
     43 H8           6.9460     0.4120    -2.4570 h1         1 J5T       0.088700
     44 H9           7.6650    -1.8640    -2.1090 h1         1 J5T       0.078700
     45 H10          5.3270    -2.3460     1.0230 h1         1 J5T       0.058700
     46 H11          7.5870    -2.9690     1.4670 h1         1 J5T       0.059200
     47 H12          7.7360    -3.7290    -0.1340 h1         1 J5T       0.059200
     48 H13         -5.5660    -1.7720     0.7320 h1         1 J5T       0.058700
     49 H14         -6.1580    -2.6540    -0.6760 h1         1 J5T       0.058700
     50 H15         -8.3550    -1.5230    -1.8380 h1         1 J5T       0.058700
     51 H16         -8.9280    -0.0660    -1.0160 h1         1 J5T       0.058700
     52 H17         -9.5450    -1.2560     0.9650 h1         1 J5T       0.044200
     53 H18        -10.2450    -2.0640    -0.4400 h1         1 J5T       0.044200
     54 H19         -6.9100    -3.7740     1.3310 h1         1 J5T       0.044200
     55 H20         -7.5430    -2.2790     2.0240 h1         1 J5T       0.044200
     56 H21          1.9430     0.8220     2.4210 hc         1 J5T       0.054700
     57 H22        -10.4320    -4.1600     0.6740 h1         1 J5T       0.034367
     58 H23         -9.0110    -4.8890     1.4230 h1         1 J5T       0.034367
     59 H24         -9.7850    -3.4870     2.1780 h1         1 J5T       0.034367
     60 H26         -2.8020    -0.1790     0.2430 ha         1 J5T       0.132000
     61 H27         -2.9420     3.5610    -1.8620 ha         1 J5T       0.132000
     62 H28          1.4970     0.1660    -0.2990 hn         1 J5T       0.345500
     63 H29          4.8090     1.4180     1.5790 hc         1 J5T       0.055700
     64 H30          3.5130     2.5750     1.5310 hc         1 J5T       0.055700
     65 H31          2.9620    -1.1120     3.6370 hc         1 J5T       0.034533
     66 H32          3.1510    -1.2850     1.9030 hc         1 J5T       0.034533
     67 H33          4.5180    -0.7600     2.8920 hc         1 J5T       0.034533
     68 H34          2.9580     2.5840     3.8320 hc         1 J5T       0.034533
     69 H35          2.7790     1.0830     4.7410 hc         1 J5T       0.034533
     70 H36          4.3620     1.5600     4.1310 hc         1 J5T       0.034533
     71 F2          -5.2520     3.4030    -2.1910 f          1 J5T      -0.134000
     72 O3           3.1370    -1.1900    -0.6740 o          1 J5T      -0.601100
     73 C24          3.0230     0.7870     2.6020 c3         1 J5T      -0.056700
     74 C27         -9.5100    -3.9420     1.2140 c3         1 J5T       0.150100
@<TRIPOS>BOND
     1     1     2 ar  
     2     1     3 ar  
     3     1     5 1   
     4     2    26 ar  
     5     2    36 1   
     6     3    27 ar  
     7     3    37 1   
     8     4    12 1   
     9     4    38 1   
    10     5    28 2   
    11     5    29 1   
    12     6     7 1   
    13     6    29 1   
    14     6    30 1   
    15     6    39 1   
    16     7    33 1   
    17     7    72 2   
    18     8    11 1   
    19     8    12 1   
    20     8    33 1   
    21     8    40 1   
    22     9    10 1   
    23     9    33 1   
    24     9    41 1   
    25     9    42 1   
    26    10    11 1   
    27    10    34 1   
    28    10    43 1   
    29    11    35 1   
    30    11    44 1   
    31    12    13 1   
    32    12    45 1   
    33    13    35 1   
    34    13    46 1   
    35    13    47 1   
    36    14    19 2   
    37    14    24 1   
    38    14    25 1   
    39    15    18 1   
    40    15    22 1   
    41    15    48 1   
    42    15    49 1   
    43    16    17 1   
    44    16    22 1   
    45    16    50 1   
    46    16    51 1   
    47    17    23 1   
    48    17    52 1   
    49    17    53 1   
    50    18    23 1   
    51    18    54 1   
    52    18    55 1   
    53    19    20 1   
    54    19    71 1   
    55    20    21 1   
    56    21    22 1   
    57    21    24 2   
    58    23    74 1   
    59    25    26 ar  
    60    25    27 ar  
    61    26    60 1   
    62    27    61 1   
    63    29    62 1   
    64    30    63 1   
    65    30    64 1   
    66    30    73 1   
    67    31    65 1   
    68    31    66 1   
    69    31    67 1   
    70    31    73 1   
    71    32    68 1   
    72    32    69 1   
    73    32    70 1   
    74    32    73 1   
    75    56    73 1   
    76    57    74 1   
    77    58    74 1   
    78    59    74 1   
@<TRIPOS>SUBSTRUCTURE
     1 J5T         1 TEMP              0 ****  ****    0 ROOT
