@<TRIPOS>MOLECULE
J5U
   76    80     1     0     0
SMALL
No Charge or Current Charge


@<TRIPOS>ATOM
      1 C4         -11.5470   -31.4990     9.3870 cc         1 J5U       0.720300
      2 C14        -10.0850   -36.5030    11.7960 cp         1 J5U      -0.091000
      3 C5         -11.0480   -29.3440     9.1630 cd         1 J5U       0.268000
      4 C6         -11.3150   -27.8810     9.1990 ca         1 J5U       0.181000
      5 C11        -11.8270   -33.9460     9.5250 ca         1 J5U       0.257000
      6 C7         -12.5390   -26.1170    10.0050 ca         1 J5U       0.398400
      7 C8         -11.7740   -25.2240     9.2650 ca         1 J5U      -0.375000
      8 C9         -10.7590   -25.7730     8.4900 ca         1 J5U       0.398400
      9 C10         -9.8180   -29.8920     8.8630 cc         1 J5U      -0.236000
     10 C12        -11.2240   -34.5490    10.6430 ca         1 J5U      -0.087000
     11 C13        -10.7250   -35.8740    10.5960 cp         1 J5U      -0.032000
     12 N1         -12.3020   -32.6260     9.6360 nh         1 J5U      -0.823100
     13 N2         -12.0360   -30.2760     9.4720 nd         1 J5U      -0.692000
     14 C3         -13.7220   -32.4810    10.0330 c3         1 J5U       0.244800
     15 N3         -12.3260   -27.4380     9.9870 nb         1 J5U      -0.271500
     16 C1         -15.3980   -32.0970    11.9480 c3         1 J5U      -0.086100
     17 C2         -13.9170   -32.2450    11.5460 c3         1 J5U      -0.100400
     18 N4         -13.5480   -25.6820    10.7940 nv         1 J5U      -1.067400
     19 N5          -9.9590   -24.9880     7.7330 nv         1 J5U      -1.067400
     20 N6         -10.5160   -27.0880     8.4450 nb         1 J5U      -0.271500
     21 S1          -9.8640   -31.6290     8.9350 ss         1 J5U      -0.107400
     22 C15        -10.1880   -37.8930    12.0490 ca         1 J5U      -0.064000
     23 C16         -9.5670   -38.4290    13.1890 ca         1 J5U      -0.161000
     24 C17         -8.8580   -37.5770    14.0540 ca         1 J5U       0.353300
     25 C18         -8.1710   -38.1250    15.2920 c3         1 J5U      -0.129700
     26 C19         -6.8460   -38.8310    14.9400 c3         1 J5U       0.173800
     27 N7          -6.0850   -39.3220    16.1150 n3         1 J5U      -0.724600
     28 C20         -4.6980   -39.8030    15.7740 c6         1 J5U       0.150800
     29 C21         -4.6090   -41.3590    15.6630 c6         1 J5U       0.147300
     30 N8          -4.9590   -42.0540    16.9510 n3         1 J5U      -0.724600
     31 C22         -3.7850   -42.5360    17.7110 c3         1 J5U       0.156100
     32 C23         -5.8960   -41.2350    17.7980 c6         1 J5U       0.147300
     33 C24         -6.8390   -40.3360    16.9390 c6         1 J5U       0.150800
     34 N9          -8.7440   -36.2490    13.8330 nb         1 J5U      -0.670000
     35 C25         -9.3450   -35.7340    12.7340 ca         1 J5U       0.353900
     36 C26        -10.8490   -36.5790     9.3750 ca         1 J5U      -0.089000
     37 C27        -11.4430   -35.9850     8.2500 ca         1 J5U      -0.111000
     38 C28        -11.9340   -34.6680     8.3130 ca         1 J5U      -0.054300
     39 C29        -12.5670   -34.0410     7.0730 c3         1 J5U      -0.048800
     40 H1         -11.9580   -24.1550     9.2910 ha         1 J5U       0.124000
     41 H2          -8.8970   -29.3850     8.6060 h4         1 J5U       0.173000
     42 H3         -11.1570   -33.9780    11.5630 ha         1 J5U       0.130000
     43 H4         -14.1980   -31.6640     9.4730 h1         1 J5U       0.057700
     44 H5         -14.2730   -33.3910     9.7550 h1         1 J5U       0.057700
     45 H6         -15.4860   -31.9330    13.0280 hc         1 J5U       0.033033
     46 H7         -15.8550   -31.2440    11.4320 hc         1 J5U       0.033033
     47 H8         -15.9620   -33.0010    11.6900 hc         1 J5U       0.033033
     48 H9         -13.4800   -33.0830    12.1010 hc         1 J5U       0.050700
     49 H10        -13.3740   -31.3420    11.8460 hc         1 J5U       0.050700
     50 H11        -13.9470   -26.3310    11.4670 hn         1 J5U       0.482500
     51 H12        -13.6040   -24.6920    11.0200 hn         1 J5U       0.482500
     52 H13         -9.3710   -25.4320     7.0310 hn         1 J5U       0.482500
     53 H14        -10.2370   -24.0260     7.5570 hn         1 J5U       0.482500
     54 H15        -10.7500   -38.5430    11.3840 ha         1 J5U       0.120000
     55 H16         -9.6370   -39.4920    13.4030 ha         1 J5U       0.124000
     56 H17         -7.9660   -37.3190    16.0080 hc         1 J5U       0.062200
     57 H18         -8.8450   -38.8260    15.7960 hc         1 J5U       0.062200
     58 H19         -7.0600   -39.6660    14.2580 h1         1 J5U       0.038200
     59 H20         -6.2280   -38.1140    14.3820 h1         1 J5U       0.038200
     60 H22         -4.3430   -39.3500    14.8370 h1         1 J5U       0.047200
     61 H23         -3.9960   -39.4800    16.5570 h1         1 J5U       0.047200
     62 H24         -5.3030   -41.6810    14.8720 h1         1 J5U       0.044950
     63 H25         -3.6020   -41.6430    15.3240 h1         1 J5U       0.044950
     64 H27         -4.1030   -43.0890    18.6050 h1         1 J5U       0.029367
     65 H28         -3.1740   -43.2090    17.0950 h1         1 J5U       0.029367
     66 H29         -3.1550   -41.6950    18.0320 h1         1 J5U       0.029367
     67 H30         -5.3270   -40.5780    18.4740 h1         1 J5U       0.044950
     68 H31         -6.5030   -41.8950    18.4340 h1         1 J5U       0.044950
     69 H32         -7.5520   -39.8270    17.6040 h1         1 J5U       0.047200
     70 H33         -7.4290   -40.9970    16.2860 h1         1 J5U       0.047200
     71 H34         -9.2180   -34.6620    12.5900 h4         1 J5U       0.024100
     72 H35        -10.4650   -37.5930     9.2900 ha         1 J5U       0.117000
     73 H36        -11.5160   -36.5530     7.3250 ha         1 J5U       0.118000
     74 H37        -13.6220   -33.7980     7.2500 hc         1 J5U       0.050033
     75 H38        -12.0520   -33.1150     6.7930 hc         1 J5U       0.050033
     76 H39        -12.5250   -34.7130     6.2080 hc         1 J5U       0.050033
@<TRIPOS>BOND
     1     1    12 1   
     2     1    13 2   
     3     1    21 1   
     4     2    11 1   
     5     2    22 ar  
     6     2    35 ar  
     7     3     4 1   
     8     3     9 2   
     9     3    13 1   
    10     4    15 ar  
    11     4    20 ar  
    12     5    10 ar  
    13     5    12 1   
    14     5    38 ar  
    15     6     7 ar  
    16     6    15 ar  
    17     6    18 1   
    18     7     8 ar  
    19     7    40 1   
    20     8    19 1   
    21     8    20 ar  
    22     9    21 1   
    23     9    41 1   
    24    10    11 ar  
    25    10    42 1   
    26    11    36 ar  
    27    12    14 1   
    28    14    17 1   
    29    14    43 1   
    30    14    44 1   
    31    16    17 1   
    32    16    45 1   
    33    16    46 1   
    34    16    47 1   
    35    17    48 1   
    36    17    49 1   
    37    18    50 1   
    38    18    51 1   
    39    19    52 1   
    40    19    53 1   
    41    22    23 ar  
    42    22    54 1   
    43    23    24 ar  
    44    23    55 1   
    45    24    25 1   
    46    24    34 ar  
    47    25    26 1   
    48    25    56 1   
    49    25    57 1   
    50    26    27 1   
    51    26    58 1   
    52    26    59 1   
    53    27    28 1   
    54    27    33 1   
    55    28    29 1   
    56    28    60 1   
    57    28    61 1   
    58    29    30 1   
    59    29    62 1   
    60    29    63 1   
    61    30    31 1   
    62    30    32 1   
    63    31    64 1   
    64    31    65 1   
    65    31    66 1   
    66    32    33 1   
    67    32    67 1   
    68    32    68 1   
    69    33    69 1   
    70    33    70 1   
    71    34    35 ar  
    72    35    71 1   
    73    36    37 ar  
    74    36    72 1   
    75    37    38 ar  
    76    37    73 1   
    77    38    39 1   
    78    39    74 1   
    79    39    75 1   
    80    39    76 1   
@<TRIPOS>SUBSTRUCTURE
     1 J5U         1 TEMP              0 ****  ****    0 ROOT
