@<TRIPOS>MOLECULE
J5U
   76    80     1     0     0
SMALL
bcc


@<TRIPOS>ATOM
      1 C4         -11.6290   -31.7100     9.5740 cc         1 J5U       0.720300
      2 C14        -10.4230   -36.6500    11.9200 cp         1 J5U      -0.156300
      3 C5         -10.8560   -29.6670     9.3450 cd         1 J5U       0.333300
      4 C6         -10.9840   -28.1980     9.3390 ca         1 J5U       0.707000
      5 C11        -12.0170   -34.0690     9.6760 ca         1 J5U       0.118600
      6 C7         -12.2650   -26.3580     9.6590 ca         1 J5U       0.726700
      7 C8         -11.1920   -25.5440     9.3080 ca         1 J5U      -0.523600
      8 C9         -10.0000   -26.1870     8.9770 ca         1 J5U       0.726700
      9 C10         -9.6980   -30.3260     9.0810 cc         1 J5U      -0.174400
     10 C12        -11.4720   -34.6810    10.7960 ca         1 J5U      -0.105000
     11 C13        -11.0090   -35.9950    10.7380 cp         1 J5U      -0.032000
     12 N1         -12.4870   -32.7340     9.7680 nh         1 J5U      -0.684700
     13 N2         -11.9410   -30.4550     9.6290 nd         1 J5U      -0.692000
     14 C3         -13.8830   -32.4760    10.0910 c3         1 J5U       0.244800
     15 N3         -12.1590   -27.6970     9.6760 nb         1 J5U      -0.797500
     16 C1         -15.6010   -31.9880    11.8610 c3         1 J5U      -0.086100
     17 C2         -14.1260   -32.2350    11.5750 c3         1 J5U      -0.100400
     18 N4         -13.4790   -25.8480     9.9670 nv         1 J5U      -0.957000
     19 N5          -8.8830   -25.4970     8.6610 nv         1 J5U      -0.957000
     20 N6          -9.8980   -27.5230     8.9910 nb         1 J5U      -0.797500
     21 S1          -9.9510   -32.0290     9.1840 ss         1 J5U      -0.252300
     22 C15        -10.6430   -37.9960    12.2020 ca         1 J5U      -0.082000
     23 C16        -10.0530   -38.5650    13.3150 ca         1 J5U      -0.244300
     24 C17         -9.2490   -37.7820    14.1390 ca         1 J5U       0.418600
     25 C18         -8.5530   -38.3670    15.3310 c3         1 J5U      -0.129700
     26 C19         -7.0690   -38.5930    15.0320 c3         1 J5U       0.173800
     27 N7          -6.3480   -39.1190    16.1730 n3         1 J5U      -0.724600
     28 C20         -4.8950   -39.0600    16.0060 c6         1 J5U       0.150800
     29 C21         -4.3290   -40.3670    15.4680 c6         1 J5U       0.147300
     30 N8          -4.5720   -41.4810    16.3870 n3         1 J5U      -0.724600
     31 C22         -3.4100   -41.8570    17.1580 c3         1 J5U       0.156100
     32 C23         -5.7130   -41.2320    17.2550 c6         1 J5U       0.147300
     33 C24         -6.7960   -40.4660    16.5220 c6         1 J5U       0.150800
     34 N9          -9.0350   -36.4940    13.8750 nb         1 J5U      -0.670000
     35 C25         -9.6020   -35.9540    12.8070 ca         1 J5U       0.419200
     36 C26        -11.1130   -36.6710     9.5240 ca         1 J5U      -0.107000
     37 C27        -11.6550   -36.0550     8.4090 ca         1 J5U      -0.129000
     38 C28        -12.1150   -34.7420     8.4550 ca         1 J5U      -0.054300
     39 C29        -12.6840   -34.0710     7.2440 c3         1 J5U      -0.048800
     40 H1         -11.2780   -24.4650     9.2930 ha         1 J5U       0.142000
     41 H2          -8.7320   -29.9150     8.8410 h4         1 J5U       0.191000
     42 H3         -11.4300   -34.1230    11.7230 ha         1 J5U       0.148000
     43 H4         -14.2240   -31.6180     9.5090 h1         1 J5U       0.057700
     44 H5         -14.4590   -33.3400     9.7520 h1         1 J5U       0.057700
     45 H6         -15.7730   -31.8150    12.9230 hc         1 J5U       0.033033
     46 H7         -15.9670   -31.1140    11.3190 hc         1 J5U       0.033033
     47 H8         -16.2110   -32.8420    11.5610 hc         1 J5U       0.033033
     48 H9         -13.7750   -33.0990    12.1440 hc         1 J5U       0.050700
     49 H10        -13.5340   -31.3780    11.9030 hc         1 J5U       0.050700
     50 H11        -14.1450   -26.4590    10.4090 hn         1 J5U       0.427300
     51 H12        -13.5620   -24.8710    10.1870 hn         1 J5U       0.427300
     52 H13         -8.1270   -26.0000     8.2280 hn         1 J5U       0.427300
     53 H14         -8.9570   -24.5230     8.4220 hn         1 J5U       0.427300
     54 H15        -11.2840   -38.5940    11.5660 ha         1 J5U       0.138000
     55 H16        -10.2180   -39.6080    13.5520 ha         1 J5U       0.142000
     56 H17         -8.6420   -37.6920    16.1860 hc         1 J5U       0.062200
     57 H18         -9.0380   -39.3070    15.6020 hc         1 J5U       0.062200
     58 H19         -6.9850   -39.2480    14.1460 h1         1 J5U       0.038200
     59 H20         -6.6290   -37.6320    14.7580 h1         1 J5U       0.038200
     60 H22         -4.6460   -38.2360    15.3350 h1         1 J5U       0.047200
     61 H23         -4.4190   -38.8270    16.9650 h1         1 J5U       0.047200
     62 H24         -4.7840   -40.5780    14.4930 h1         1 J5U       0.044950
     63 H25         -3.2560   -40.2670    15.2900 h1         1 J5U       0.044950
     64 H27         -3.6430   -42.7280    17.7750 h1         1 J5U       0.029367
     65 H28         -2.5870   -42.1350    16.4980 h1         1 J5U       0.029367
     66 H29         -3.0500   -41.0650    17.8340 h1         1 J5U       0.029367
     67 H30         -5.4310   -40.6690    18.1610 h1         1 J5U       0.044950
     68 H31         -6.1200   -42.1850    17.6030 h1         1 J5U       0.044950
     69 H32         -7.6850   -40.4170    17.1550 h1         1 J5U       0.047200
     70 H33         -7.0830   -41.0400    15.6250 h1         1 J5U       0.047200
     71 H34         -9.3800   -34.9060    12.6290 h4         1 J5U       0.024100
     72 H35        -10.7460   -37.6870     9.4360 ha         1 J5U       0.135000
     73 H36        -11.7110   -36.6030     7.4760 ha         1 J5U       0.136000
     74 H37        -13.7140   -33.7480     7.4060 hc         1 J5U       0.050033
     75 H38        -12.1100   -33.1840     6.9710 hc         1 J5U       0.050033
     76 H39        -12.6790   -34.7450     6.3890 hc         1 J5U       0.050033
@<TRIPOS>BOND
     1     1    12 1   
     2     1    13 2   
     3     1    21 1   
     4     2    11 1   
     5     2    22 ar  
     6     2    35 ar  
     7     3     4 1   
     8     3     9 2   
     9     3    13 1   
    10     4    15 ar  
    11     4    20 ar  
    12     5    10 ar  
    13     5    12 1   
    14     5    38 ar  
    15     6     7 ar  
    16     6    15 ar  
    17     6    18 1   
    18     7     8 ar  
    19     7    40 1   
    20     8    19 1   
    21     8    20 ar  
    22     9    21 1   
    23     9    41 1   
    24    10    11 ar  
    25    10    42 1   
    26    11    36 ar  
    27    12    14 1   
    28    14    17 1   
    29    14    43 1   
    30    14    44 1   
    31    16    17 1   
    32    16    45 1   
    33    16    46 1   
    34    16    47 1   
    35    17    48 1   
    36    17    49 1   
    37    18    50 1   
    38    18    51 1   
    39    19    52 1   
    40    19    53 1   
    41    22    23 ar  
    42    22    54 1   
    43    23    24 ar  
    44    23    55 1   
    45    24    25 1   
    46    24    34 ar  
    47    25    26 1   
    48    25    56 1   
    49    25    57 1   
    50    26    27 1   
    51    26    58 1   
    52    26    59 1   
    53    27    28 1   
    54    27    33 1   
    55    28    29 1   
    56    28    60 1   
    57    28    61 1   
    58    29    30 1   
    59    29    62 1   
    60    29    63 1   
    61    30    31 1   
    62    30    32 1   
    63    31    64 1   
    64    31    65 1   
    65    31    66 1   
    66    32    33 1   
    67    32    67 1   
    68    32    68 1   
    69    33    69 1   
    70    33    70 1   
    71    34    35 ar  
    72    35    71 1   
    73    36    37 ar  
    74    36    72 1   
    75    37    38 ar  
    76    37    73 1   
    77    38    39 1   
    78    39    74 1   
    79    39    75 1   
    80    39    76 1   
@<TRIPOS>SUBSTRUCTURE
     1 J5U         1 TEMP              0 ****  ****    0 ROOT
