@<TRIPOS>MOLECULE
J5V
   24    24     1     0     0
SMALL
No Charge or Current Charge


@<TRIPOS>ATOM
      1 C4           0.6190     0.3990    -0.3980 cg         1 J5V      -0.098000
      2 C5           1.9990     0.0710    -0.1860 ca         1 J5V       0.026000
      3 C6           2.5940    -0.9800    -0.9100 ca         1 J5V      -0.086500
      4 C7           3.9470    -1.3020    -0.7020 ca         1 J5V      -0.114500
      5 C8           4.7080    -0.5750     0.2300 ca         1 J5V      -0.102000
      6 C10          2.7630     0.7970     0.7460 ca         1 J5V      -0.086500
      7 O           -4.8200     0.7770    -0.6190 o          1 J5V      -0.594100
      8 C1          -4.1460    -0.0630    -0.0420 c          1 J5V       0.601100
      9 C           -4.7620    -1.2080     0.7520 c3         1 J5V      -0.179100
     10 N           -2.7750    -0.0460    -0.0630 ns         1 J5V      -0.510900
     11 C2          -1.9780     0.9570    -0.7610 c3         1 J5V       0.198100
     12 C3          -0.5530     0.6700    -0.5730 c1         1 J5V      -0.149100
     13 C9           4.1160     0.4740     0.9540 ca         1 J5V      -0.114500
     14 H1           2.0100    -1.5460    -1.6330 ha         1 J5V       0.120000
     15 H2           4.4050    -2.1150    -1.2630 ha         1 J5V       0.114500
     16 H3           5.7550    -0.8250     0.3900 ha         1 J5V       0.113000
     17 H4           2.3100     1.6100     1.3100 ha         1 J5V       0.120000
     18 H5          -5.8570    -1.1860     0.7440 hc         1 J5V       0.060033
     19 H6          -4.3720    -2.1580     0.3690 hc         1 J5V       0.060033
     20 H7          -4.3640    -1.1880     1.7730 hc         1 J5V       0.060033
     21 H8          -2.2930    -0.7800     0.4410 hn         1 J5V       0.315500
     22 H9          -2.2200     0.9390    -1.8320 h1         1 J5V       0.066200
     23 H10         -2.2090     1.9530    -0.3610 h1         1 J5V       0.066200
     24 H11          4.7050     1.0370     1.6750 ha         1 J5V       0.114500
@<TRIPOS>BOND
     1     1     2 1   
     2     1    12 3   
     3     2     3 ar  
     4     2     6 ar  
     5     3     4 ar  
     6     3    14 1   
     7     4     5 ar  
     8     4    15 1   
     9     5    13 ar  
    10     5    16 1   
    11     6    13 ar  
    12     6    17 1   
    13     7     8 2   
    14     8     9 1   
    15     8    10 1   
    16     9    18 1   
    17     9    19 1   
    18     9    20 1   
    19    10    11 1   
    20    10    21 1   
    21    11    12 1   
    22    11    22 1   
    23    11    23 1   
    24    13    24 1   
@<TRIPOS>SUBSTRUCTURE
     1 J5V         1 TEMP              0 ****  ****    0 ROOT
