@<TRIPOS>MOLECULE
J5V
   24    24     1     0     0
SMALL
bcc


@<TRIPOS>ATOM
      1 C4           0.4890     0.2220    -0.6600 cg         1 J5V      -0.098000
      2 C5           1.8320     0.0280    -0.2170 ca         1 J5V       0.026000
      3 C6           2.6060    -1.0130    -0.7360 ca         1 J5V      -0.104500
      4 C7           3.9130    -1.1930    -0.3100 ca         1 J5V      -0.132500
      5 C8           4.4620    -0.3350     0.6310 ca         1 J5V      -0.120000
      6 C10          2.3930     0.8910     0.7290 ca         1 J5V      -0.104500
      7 O           -2.9630     0.8870     1.1200 o          1 J5V      -0.594100
      8 C1          -3.3740    -0.0580     0.4650 c          1 J5V       0.668100
      9 C           -4.3620    -1.0480     1.0210 c3         1 J5V      -0.179100
     10 N           -2.9830    -0.2750    -0.8020 ns         1 J5V      -0.577900
     11 C2          -2.0290     0.5740    -1.4740 c3         1 J5V       0.198100
     12 C3          -0.6510     0.3860    -1.0150 c1         1 J5V      -0.149100
     13 C9           3.7020     0.7070     1.1480 ca         1 J5V      -0.132500
     14 H1           2.1760    -1.6810    -1.4710 ha         1 J5V       0.138000
     15 H2           4.5040    -2.0000    -0.7200 ha         1 J5V       0.132500
     16 H3           5.4830    -0.4760     0.9630 ha         1 J5V       0.131000
     17 H4           1.8030     1.7040     1.1310 ha         1 J5V       0.138000
     18 H5          -4.0150    -1.4030     1.9920 hc         1 J5V       0.060033
     19 H6          -5.3190    -0.5490     1.1750 hc         1 J5V       0.060033
     20 H7          -4.5240    -1.9030     0.3730 hc         1 J5V       0.060033
     21 H8          -3.2910    -1.1060    -1.2830 hn         1 J5V       0.315500
     22 H9          -2.0870     0.3530    -2.5390 h1         1 J5V       0.066200
     23 H10         -2.3130     1.6240    -1.3630 h1         1 J5V       0.066200
     24 H11          4.1300     1.3770     1.8830 ha         1 J5V       0.132500
@<TRIPOS>BOND
     1     1     2 1   
     2     1    12 3   
     3     2     3 ar  
     4     2     6 ar  
     5     3     4 ar  
     6     3    14 1   
     7     4     5 ar  
     8     4    15 1   
     9     5    13 ar  
    10     5    16 1   
    11     6    13 ar  
    12     6    17 1   
    13     7     8 2   
    14     8     9 1   
    15     8    10 1   
    16     9    18 1   
    17     9    19 1   
    18     9    20 1   
    19    10    11 1   
    20    10    21 1   
    21    11    12 1   
    22    11    22 1   
    23    11    23 1   
    24    13    24 1   
@<TRIPOS>SUBSTRUCTURE
     1 J5V         1 TEMP              0 ****  ****    0 ROOT
