@<TRIPOS>MOLECULE
J5W
   52    55     1     0     0
SMALL
abcg2


@<TRIPOS>ATOM
      1 C20        -12.6350     8.6450     0.5550 ca         1 J5W      -0.134500
      2 C21        -11.3100     8.4260     0.1480 ca         1 J5W      -0.062000
      3 C22        -10.2380     8.8830     0.9000 ca         1 J5W      -0.127000
      4 C24        -11.7590     9.8080     2.5180 ca         1 J5W      -0.149000
      5 C28        -17.8360     8.7930    -1.4330 c6         1 J5W       0.148300
      6 C02        -23.6680     9.5530    -4.5730 ca         1 J5W      -0.062300
      7 C03        -23.2990     8.4970    -3.7360 ca         1 J5W      -0.112000
      8 C04        -22.2700     8.6300    -2.8130 ca         1 J5W      -0.080500
      9 C05        -22.9660    10.7540    -4.4580 ca         1 J5W      -0.112000
     10 C06        -21.9180    10.8940    -3.5570 ca         1 J5W      -0.080500
     11 C07        -21.5630     9.8300    -2.7290 ca         1 J5W      -0.115000
     12 C09        -19.3240     8.5150    -1.6990 c6         1 J5W       0.252300
     13 C11        -19.1980     6.2980    -0.8810 c6         1 J5W       0.158300
     14 C12        -19.9380     5.3270     0.0090 c3         1 J5W       0.171600
     15 C14        -17.7210     6.4190    -0.5180 c6         1 J5W       0.133300
     16 C16        -17.0780     7.4670    -1.4440 c6         1 J5W       0.068300
     17 C18        -15.1200     8.3350    -0.0920 cc         1 J5W      -0.169000
     18 C19        -13.7570     8.1590    -0.2440 cd         1 J5W       0.249500
     19 C23        -10.4590     9.5770     2.0870 ca         1 J5W      -0.083000
     20 C25        -12.8090     9.3400     1.7510 ca         1 J5W       0.164000
     21 F30        -14.0700     9.5720     2.1990 f          1 J5W      -0.191000
     22 N17        -15.6710     7.6650    -1.1240 na         1 J5W       0.120800
     23 N26        -13.5680     7.3930    -1.3600 nd         1 J5W      -0.353000
     24 N27        -14.7210     7.0980    -1.8850 nc         1 J5W      -0.198800
     25 O10        -19.8380     7.5760    -0.7730 os         1 J5W      -0.415000
     26 O13        -21.2040     5.0450    -0.5850 oh         1 J5W      -0.724000
     27 O15        -17.6020     6.7830     0.8530 oh         1 J5W      -0.707000
     28 O29        -17.2650     9.6020    -2.4450 oh         1 J5W      -0.709000
     29 S08        -20.2510    10.0700    -1.5520 ss         1 J5W      -0.160000
     30 H211       -11.1380     7.8900    -0.7740 ha         1 J5W       0.139000
     31 H221        -9.2280     8.6990     0.5580 ha         1 J5W       0.120000
     32 H241       -11.9700    10.3410     3.4360 ha         1 J5W       0.131000
     33 H281       -17.7440     9.2670    -0.4500 h1         1 J5W       0.071700
     34 H012       -24.3680     9.0250    -6.5360 hc         1 J5W       0.045033
     35 H013       -25.5140     8.6710    -5.2450 hc         1 J5W       0.045033
     36 H011       -25.2660    10.3410    -5.7840 hc         1 J5W       0.045033
     37 H041       -22.0200     7.8060    -2.1590 ha         1 J5W       0.130000
     38 H051       -23.2340    11.5910    -5.0930 ha         1 J5W       0.115500
     39 H061       -21.3720    11.8270    -3.5020 ha         1 J5W       0.130000
     40 H091       -19.4450     8.1510    -2.7250 h2         1 J5W       0.071700
     41 H111       -19.2650     5.9490    -1.9190 h1         1 J5W       0.060700
     42 H122       -19.3400     4.4130     0.1020 h1         1 J5W       0.043700
     43 H121       -20.0590     5.7640     1.0030 h1         1 J5W       0.043700
     44 H141       -17.2340     5.4580    -0.7000 h1         1 J5W       0.060700
     45 H161       -17.0910     7.0760    -2.4620 h1         1 J5W       0.106700
     46 H181       -15.7060     8.8610     0.6340 h4         1 J5W       0.184000
     47 H231        -9.6260     9.9380     2.6760 ha         1 J5W       0.118000
     48 H131       -21.7350     4.5530     0.0530 ho         1 J5W       0.510000
     49 H151       -16.7880     6.4060     1.2070 ho         1 J5W       0.513000
     50 H291       -17.7230    10.4540    -2.4470 ho         1 J5W       0.526000
     51 H031       -23.8350     7.5570    -3.7970 ha         1 J5W       0.115500
     52 C01        -24.7680     9.3910    -5.5850 c3         1 J5W      -0.048800
@<TRIPOS>BOND
     1     1     2 ar  
     2     1    18 1   
     3     1    20 ar  
     4     2     3 ar  
     5     2    30 1   
     6     3    19 ar  
     7     3    31 1   
     8     4    19 ar  
     9     4    20 ar  
    10     4    32 1   
    11     5    12 1   
    12     5    16 1   
    13     5    28 1   
    14     5    33 1   
    15     6     7 ar  
    16     6     9 ar  
    17     6    52 1   
    18     7     8 ar  
    19     7    51 1   
    20     8    11 ar  
    21     8    37 1   
    22     9    10 ar  
    23     9    38 1   
    24    10    11 ar  
    25    10    39 1   
    26    11    29 1   
    27    12    25 1   
    28    12    29 1   
    29    12    40 1   
    30    13    14 1   
    31    13    15 1   
    32    13    25 1   
    33    13    41 1   
    34    14    26 1   
    35    14    42 1   
    36    14    43 1   
    37    15    16 1   
    38    15    27 1   
    39    15    44 1   
    40    16    22 1   
    41    16    45 1   
    42    17    18 2   
    43    17    22 1   
    44    17    46 1   
    45    18    23 1   
    46    19    47 1   
    47    20    21 1   
    48    22    24 1   
    49    23    24 2   
    50    26    48 1   
    51    27    49 1   
    52    28    50 1   
    53    34    52 1   
    54    35    52 1   
    55    36    52 1   
@<TRIPOS>SUBSTRUCTURE
     1 J5W         1 TEMP              0 ****  ****    0 ROOT
