@<TRIPOS>MOLECULE
J5W
   52    55     1     0     0
SMALL
No Charge or Current Charge


@<TRIPOS>ATOM
      1 C20        -12.5370     8.5520     0.7810 ca         1 J5W      -0.134500
      2 C21        -11.2220     8.0330     0.6950 ca         1 J5W      -0.062000
      3 C22        -10.1800     8.5650     1.4750 ca         1 J5W      -0.127000
      4 C24        -11.7250    10.1530     2.4560 ca         1 J5W      -0.149000
      5 C28        -17.5080     8.7760    -1.7470 c6         1 J5W       0.148300
      6 C02        -23.9870     9.4350    -4.3340 ca         1 J5W      -0.062300
      7 C03        -23.0900     8.3660    -4.1590 ca         1 J5W      -0.112000
      8 C04        -21.8340     8.5770    -3.5640 ca         1 J5W      -0.080500
      9 C05        -23.6120    10.7230    -3.9110 ca         1 J5W      -0.112000
     10 C06        -22.3570    10.9370    -3.3160 ca         1 J5W      -0.080500
     11 C07        -21.4590     9.8690    -3.1360 ca         1 J5W      -0.115000
     12 C09        -18.9940     8.6070    -2.2150 c6         1 J5W       0.252300
     13 C11        -19.1830     6.4400    -1.1400 c6         1 J5W       0.158300
     14 C12        -20.1580     5.5970    -0.2550 c3         1 J5W       0.171600
     15 C14        -17.7320     6.4980    -0.5610 c6         1 J5W       0.133300
     16 C16        -16.8640     7.3690    -1.5240 c6         1 J5W       0.068300
     17 C18        -14.9350     8.3050    -0.1310 cc         1 J5W      -0.169000
     18 C19        -13.6110     7.9630    -0.0590 cd         1 J5W       0.249500
     19 C23        -10.4290     9.6250     2.3570 ca         1 J5W      -0.083000
     20 C25        -12.7690     9.6240     1.6790 ca         1 J5W       0.164000
     21 F30        -13.9940    10.1740     1.8180 f          1 J5W      -0.191000
     22 N17        -15.4520     7.4380    -1.0670 na         1 J5W       0.120800
     23 N26        -13.3800     6.9160    -0.9310 nd         1 J5W      -0.353000
     24 N27        -14.4900     6.5970    -1.5370 nc         1 J5W      -0.198800
     25 O10        -19.7200     7.7810    -1.2770 os         1 J5W      -0.415000
     26 O13        -21.4820     5.4820    -0.8200 oh         1 J5W      -0.724000
     27 O15        -17.7210     7.0430     0.7800 oh         1 J5W      -0.707000
     28 O29        -16.7390     9.5350    -2.7100 oh         1 J5W      -0.709000
     29 S08        -19.8690    10.2360    -2.3720 ss         1 J5W      -0.160000
     30 H211       -10.9940     7.2100     0.0200 ha         1 J5W       0.139000
     31 H221        -9.1770     8.1520     1.3930 ha         1 J5W       0.120000
     32 H241       -11.9240    10.9750     3.1390 ha         1 J5W       0.131000
     33 H281       -17.5270     9.3050    -0.7820 h1         1 J5W       0.071700
     34 H012       -25.2830     9.3220    -6.0690 hc         1 J5W       0.045033
     35 H013       -25.7170     8.1920    -4.7750 hc         1 J5W       0.045033
     36 H011       -26.0930     9.9110    -4.6070 hc         1 J5W       0.045033
     37 H041       -21.1720     7.7260    -3.4450 ha         1 J5W       0.130000
     38 H051       -24.2930    11.5610    -4.0440 ha         1 J5W       0.115500
     39 H061       -22.0800    11.9390    -2.9940 ha         1 J5W       0.130000
     40 H091       -19.0060     8.1440    -3.2120 h2         1 J5W       0.071700
     41 H111       -19.1520     5.9700    -2.1340 h1         1 J5W       0.060700
     42 H122       -19.7200     4.5980    -0.1220 h1         1 J5W       0.043700
     43 H121       -20.2130     6.0620     0.7390 h1         1 J5W       0.043700
     44 H141       -17.3260     5.4750    -0.5550 h1         1 J5W       0.060700
     45 H161       -16.8530     6.8640    -2.5000 h1         1 J5W       0.106700
     46 H181       -15.5260     9.0520     0.3760 h4         1 J5W       0.184000
     47 H231        -9.6220    10.0370     2.9600 ha         1 J5W       0.118000
     48 H131       -22.0430     5.0270    -0.1490 ho         1 J5W       0.510000
     49 H151       -16.9770     6.6190     1.2670 ho         1 J5W       0.513000
     50 H291       -17.0830    10.4590    -2.7030 ho         1 J5W       0.526000
     51 H031       -23.3660     7.3650    -4.4840 ha         1 J5W       0.115500
     52 C01        -25.3440     9.2030    -4.9810 c3         1 J5W      -0.048800
@<TRIPOS>BOND
     1     1     2 ar  
     2     1    18 1   
     3     1    20 ar  
     4     2     3 ar  
     5     2    30 1   
     6     3    19 ar  
     7     3    31 1   
     8     4    19 ar  
     9     4    20 ar  
    10     4    32 1   
    11     5    12 1   
    12     5    16 1   
    13     5    28 1   
    14     5    33 1   
    15     6     7 ar  
    16     6     9 ar  
    17     6    52 1   
    18     7     8 ar  
    19     7    51 1   
    20     8    11 ar  
    21     8    37 1   
    22     9    10 ar  
    23     9    38 1   
    24    10    11 ar  
    25    10    39 1   
    26    11    29 1   
    27    12    25 1   
    28    12    29 1   
    29    12    40 1   
    30    13    14 1   
    31    13    15 1   
    32    13    25 1   
    33    13    41 1   
    34    14    26 1   
    35    14    42 1   
    36    14    43 1   
    37    15    16 1   
    38    15    27 1   
    39    15    44 1   
    40    16    22 1   
    41    16    45 1   
    42    17    18 2   
    43    17    22 1   
    44    17    46 1   
    45    18    23 1   
    46    19    47 1   
    47    20    21 1   
    48    22    24 1   
    49    23    24 2   
    50    26    48 1   
    51    27    49 1   
    52    28    50 1   
    53    34    52 1   
    54    35    52 1   
    55    36    52 1   
@<TRIPOS>SUBSTRUCTURE
     1 J5W         1 TEMP              0 ****  ****    0 ROOT
