@<TRIPOS>MOLECULE
J5X
   46    50     1     0     0
SMALL
abcg2


@<TRIPOS>ATOM
      1 C1          14.2190    10.8450    16.6540 c6         1 J5X      -0.077400
      2 C2          12.9680    11.3060    17.4120 c6         1 J5X      -0.078400
      3 C3          13.2790    11.8780    18.8010 c6         1 J5X      -0.069400
      4 C4          14.3500    11.0700    19.5730 c5         1 J5X      -0.136000
      5 C5          15.6210    11.0830    18.7300 c5         1 J5X      -0.063700
      6 C6          16.8680    10.4270    19.3120 c5         1 J5X      -0.176700
      7 C7          17.7780    11.3520    20.1440 c          1 J5X       0.721000
      8 C8          17.5820     9.8100    18.0850 c5         1 J5X      -0.016000
      9 C9          16.4750     9.6150    16.9910 c5         1 J5X      -0.052700
     10 C10         15.1910    10.1600    17.5980 c5         1 J5X       0.164000
     11 C11         16.4210     8.1940    16.4410 c6         1 J5X      -0.057400
     12 C12         17.8130     7.7210    16.0030 c6         1 J5X      -0.063400
     13 C13         18.9190     8.2380    16.9520 c5         1 J5X      -0.041500
     14 C14         18.3160     8.4900    18.3360 c5         1 J5X      -0.067400
     15 C15         18.7210    10.6320    17.4630 c5         1 J5X      -0.042200
     16 C16         19.3860     9.6270    16.5510 c2         1 J5X      -0.089400
     17 C17         20.2310     9.9010    15.5630 c2         1 J5X      -0.366000
     18 C18         14.4770    11.5350    21.0090 c3         1 J5X      -0.062100
     19 C19         13.9690     9.6060    19.4460 c          1 J5X       0.663100
     20 O91         13.3040     8.9320    20.1880 o          1 J5X      -0.534000
     21 O92         14.4680     9.1150    18.3100 os         1 J5X      -0.433100
     22 O71         17.6880    12.5810    19.9470 o          1 J5X      -0.728500
     23 O72         18.5590    10.7820    20.9340 o          1 J5X      -0.728500
     24 H1          13.9380    10.1890    15.8250 hc         1 J5X       0.044700
     25 H2          14.7370    11.7020    16.2150 hc         1 J5X       0.044700
     26 H3          12.4350    12.0540    16.8230 hc         1 J5X       0.035700
     27 H4          12.2750    10.4670    17.5140 hc         1 J5X       0.035700
     28 H5          13.6510    12.9030    18.7170 hc         1 J5X       0.044700
     29 H6          12.3580    11.9250    19.3880 hc         1 J5X       0.044700
     30 H7          15.8580    12.0840    18.3650 hc         1 J5X       0.098700
     31 H8          16.5790     9.5910    19.9610 hc         1 J5X       0.051700
     32 H9          16.7060    10.2800    16.1510 hc         1 J5X       0.046700
     33 H10         15.7240     8.1360    15.6020 hc         1 J5X       0.039700
     34 H11         16.0370     7.5160    17.2050 hc         1 J5X       0.039700
     35 H12         17.8270     6.6280    15.9880 hc         1 J5X       0.026700
     36 H13         18.0260     8.0470    14.9830 hc         1 J5X       0.026700
     37 H14         19.7530     7.5320    16.9590 hc         1 J5X       0.045700
     38 H15         17.6700     7.6830    18.6880 hc         1 J5X       0.060200
     39 H16         19.0900     8.6400    19.0930 hc         1 J5X       0.060200
     40 H17         19.4320    10.9430    18.2340 hc         1 J5X       0.073200
     41 H18         18.3880    11.5320    16.9430 hc         1 J5X       0.073200
     42 H19         20.5060    10.9190    15.3140 ha         1 J5X       0.150500
     43 H20         20.6790     9.1160    14.9640 ha         1 J5X       0.150500
     44 H21         13.5290    11.4390    21.5410 hc         1 J5X       0.047033
     45 H22         15.2270    10.9640    21.5550 hc         1 J5X       0.047033
     46 H23         14.7690    12.5850    21.0380 hc         1 J5X       0.047033
@<TRIPOS>BOND
     1     1     2 1   
     2     1    10 1   
     3     1    24 1   
     4     1    25 1   
     5     2     3 1   
     6     2    26 1   
     7     2    27 1   
     8     3     4 1   
     9     3    28 1   
    10     3    29 1   
    11     4     5 1   
    12     4    18 1   
    13     4    19 1   
    14     5     6 1   
    15     5    10 1   
    16     5    30 1   
    17     6     7 1   
    18     6     8 1   
    19     6    31 1   
    20     7    22 1   
    21     7    23 1   
    22     8     9 1   
    23     8    14 1   
    24     8    15 1   
    25     9    10 1   
    26     9    11 1   
    27     9    32 1   
    28    10    21 1   
    29    11    12 1   
    30    11    33 1   
    31    11    34 1   
    32    12    13 1   
    33    12    35 1   
    34    12    36 1   
    35    13    14 1   
    36    13    16 1   
    37    13    37 1   
    38    14    38 1   
    39    14    39 1   
    40    15    16 1   
    41    15    40 1   
    42    15    41 1   
    43    16    17 2   
    44    17    42 1   
    45    17    43 1   
    46    18    44 1   
    47    18    45 1   
    48    18    46 1   
    49    19    20 2   
    50    19    21 1   
@<TRIPOS>SUBSTRUCTURE
     1 J5X         1 TEMP              0 ****  ****    0 ROOT
