@<TRIPOS>MOLECULE
J5X
   46    50     1     0     0
SMALL
No Charge or Current Charge


@<TRIPOS>ATOM
      1 C1          13.9910    10.7440    16.7020 c6         1 J5X      -0.077400
      2 C2          12.7440    11.0720    17.5750 c6         1 J5X      -0.078400
      3 C3          13.1180    11.7520    18.9290 c6         1 J5X      -0.069400
      4 C4          14.3340    11.0510    19.6270 c5         1 J5X      -0.136000
      5 C5          15.5900    11.1910    18.6670 c5         1 J5X      -0.063700
      6 C6          16.8810    10.5290    19.2920 c5         1 J5X      -0.176700
      7 C7          17.7650    11.5950    20.0120 c          1 J5X       0.721000
      8 C8          17.5770     9.8800    18.0020 c5         1 J5X      -0.016000
      9 C9          16.4870     9.8080    16.8460 c5         1 J5X      -0.052700
     10 C10         15.1560    10.1870    17.5670 c5         1 J5X       0.164000
     11 C11         16.4280     8.4790    16.0290 c6         1 J5X      -0.057400
     12 C12         17.8290     7.8670    15.7690 c6         1 J5X      -0.063400
     13 C13         18.8160     8.1460    16.9420 c5         1 J5X      -0.041500
     14 C14         18.1020     8.4360    18.3050 c5         1 J5X      -0.067400
     15 C15         18.8960    10.5650    17.4390 c5         1 J5X      -0.042200
     16 C16         19.5690     9.4410    16.6770 c2         1 J5X      -0.089400
     17 C17         20.6590     9.5680    15.9090 c2         1 J5X      -0.366000
     18 C18         14.5280    11.6540    21.0450 c3         1 J5X      -0.062100
     19 C19         14.0960     9.5080    19.6550 c          1 J5X       0.663100
     20 O91         13.8600     8.7770    20.6080 o          1 J5X      -0.534000
     21 O92         14.6480     9.0630    18.4340 os         1 J5X      -0.433100
     22 O71         18.0060    12.6640    19.4700 o          1 J5X      -0.728500
     23 O72         18.1520    11.3530    21.1460 o          1 J5X      -0.728500
     24 H1          13.7240    10.0260    15.9160 hc         1 J5X       0.044700
     25 H2          14.3290    11.6560    16.1900 hc         1 J5X       0.044700
     26 H3          12.0530    11.7140    17.0120 hc         1 J5X       0.035700
     27 H4          12.1910    10.1440    17.7750 hc         1 J5X       0.035700
     28 H5          13.3530    12.8120    18.7560 hc         1 J5X       0.044700
     29 H6          12.2400    11.7360    19.5900 hc         1 J5X       0.044700
     30 H7          15.7550    12.2030    18.2750 hc         1 J5X       0.098700
     31 H8          16.6670     9.7330    20.0130 hc         1 J5X       0.051700
     32 H9          16.7000    10.5750    16.0920 hc         1 J5X       0.046700
     33 H10         15.8980     8.6360    15.0790 hc         1 J5X       0.039700
     34 H11         15.8330     7.7380    16.5800 hc         1 J5X       0.039700
     35 H12         17.7210     6.7830    15.6270 hc         1 J5X       0.026700
     36 H13         18.2420     8.2560    14.8280 hc         1 J5X       0.026700
     37 H14         19.4970     7.2880    16.9940 hc         1 J5X       0.045700
     38 H15         17.3110     7.7160    18.5450 hc         1 J5X       0.060200
     39 H16         18.8120     8.4300    19.1400 hc         1 J5X       0.060200
     40 H17         19.5690    10.8830    18.2420 hc         1 J5X       0.073200
     41 H18         18.7030    11.4440    16.8140 hc         1 J5X       0.073200
     42 H19         21.1500    10.5320    15.7710 ha         1 J5X       0.150500
     43 H20         21.0940     8.7130    15.3920 ha         1 J5X       0.150500
     44 H21         13.6120    11.5700    21.6420 hc         1 J5X       0.047033
     45 H22         15.3210    11.1400    21.6000 hc         1 J5X       0.047033
     46 H23         14.7940    12.7170    20.9900 hc         1 J5X       0.047033
@<TRIPOS>BOND
     1     1     2 1   
     2     1    10 1   
     3     1    24 1   
     4     1    25 1   
     5     2     3 1   
     6     2    26 1   
     7     2    27 1   
     8     3     4 1   
     9     3    28 1   
    10     3    29 1   
    11     4     5 1   
    12     4    18 1   
    13     4    19 1   
    14     5     6 1   
    15     5    10 1   
    16     5    30 1   
    17     6     7 1   
    18     6     8 1   
    19     6    31 1   
    20     7    22 1   
    21     7    23 1   
    22     8     9 1   
    23     8    14 1   
    24     8    15 1   
    25     9    10 1   
    26     9    11 1   
    27     9    32 1   
    28    10    21 1   
    29    11    12 1   
    30    11    33 1   
    31    11    34 1   
    32    12    13 1   
    33    12    35 1   
    34    12    36 1   
    35    13    14 1   
    36    13    16 1   
    37    13    37 1   
    38    14    38 1   
    39    14    39 1   
    40    15    16 1   
    41    15    40 1   
    42    15    41 1   
    43    16    17 2   
    44    17    42 1   
    45    17    43 1   
    46    18    44 1   
    47    18    45 1   
    48    18    46 1   
    49    19    20 2   
    50    19    21 1   
@<TRIPOS>SUBSTRUCTURE
     1 J5X         1 TEMP              0 ****  ****    0 ROOT
