@<TRIPOS>MOLECULE
J5Y
   76    81     1     0     0
SMALL
abcg2


@<TRIPOS>ATOM
      1 C            7.7300     0.6670    -2.0070 c3         1 J5Y      -0.043800
      2 F           -0.6190     2.7330     1.8570 f          1 J5Y      -0.155000
      3 N            6.2020     0.5070     0.4320 nh         1 J5Y      -0.781400
      4 O           -2.9510     1.1620     1.6900 o          1 J5Y      -0.587100
      5 CL          10.3670    -0.3390     3.3100 cl         1 J5Y      -0.205000
      6 C1           8.3530     0.3620    -0.6780 ca         1 J5Y      -0.080300
      7 N1           3.3630     0.4930     0.5870 nh         1 J5Y      -0.799400
      8 C2           9.7270     0.1710    -0.5860 ca         1 J5Y      -0.092000
      9 N2          -2.9790     0.3840    -0.4160 ns         1 J5Y      -0.488900
     10 C3          10.3690    -0.0490     0.6250 ca         1 J5Y      -0.114000
     11 N3          -3.0760    -3.4180    -2.6710 na         1 J5Y      -0.220700
     12 C4           9.6010    -0.0770     1.7730 ca         1 J5Y       0.136000
     13 C5           8.2270     0.0890     1.7260 ca         1 J5Y      -0.148000
     14 N5          -8.9700     4.7560     1.1320 nb         1 J5Y      -0.684000
     15 C6           7.5900     0.3080     0.5040 ca         1 J5Y       0.271000
     16 C7           5.5290     0.9910     1.6170 c6         1 J5Y       0.177800
     17 C8           4.1480     1.5100     1.2620 c6         1 J5Y       0.206800
     18 C9           4.0550    -0.1110    -0.5420 c6         1 J5Y       0.206800
     19 C10          5.4390    -0.5840    -0.1510 c6         1 J5Y       0.177800
     20 C11          1.9930     0.5930     0.5720 ca         1 J5Y       0.372000
     21 C12          1.1900    -0.3740    -0.0660 ca         1 J5Y      -0.207000
     22 C13         -0.1840    -0.2870    -0.0370 ca         1 J5Y      -0.025000
     23 C14         -0.8580     0.7450     0.6230 ca         1 J5Y      -0.243600
     24 C15         -2.3390     0.7990     0.6950 c          1 J5Y       0.631700
     25 C16         -4.4090     0.3100    -0.4650 c3         1 J5Y       0.041700
     26 C17         -4.8520    -0.3080    -1.8030 c3         1 J5Y      -0.009200
     27 C18         -4.3220    -1.6890    -1.9840 cc         1 J5Y      -0.151400
     28 C19         -3.3160    -2.0830    -2.8210 cd         1 J5Y      -0.156100
     29 C20         -3.9210    -3.9270    -1.7290 ca         1 J5Y      -0.046200
     30 C21         -4.0560    -5.2250    -1.2380 ca         1 J5Y      -0.125000
     31 C22         -5.0190    -5.4450    -0.2730 ca         1 J5Y      -0.088000
     32 C23         -5.8350    -4.4020     0.1960 ca         1 J5Y      -0.134000
     33 C24         -5.6990    -3.1170    -0.2930 ca         1 J5Y      -0.064000
     34 C25         -4.7290    -2.8630    -1.2690 ca         1 J5Y      -0.092800
     35 C26         -5.0240     1.7020    -0.3260 c          1 J5Y       0.600100
     36 C27         -7.0840     2.7550     0.5710 ca         1 J5Y       0.023000
     37 C28         -6.8590     4.0800     0.1960 ca         1 J5Y      -0.208500
     38 C29         -7.8310     5.0190     0.5030 ca         1 J5Y       0.355900
     39 C30         -9.1720     3.4900     1.4860 ca         1 J5Y       0.355900
     40 C31         -8.2790     2.4680     1.2340 ca         1 J5Y      -0.208500
     41 C32         -0.0520     1.6890     1.2420 ca         1 J5Y       0.273000
     42 C33          1.3250     1.6490     1.2160 ca         1 J5Y      -0.252000
     43 H            7.3620    -0.2320    -2.5070 hc         1 J5Y       0.045367
     44 HA           6.8840     1.3460    -1.8980 hc         1 J5Y       0.045367
     45 HB           8.4570     1.1270    -2.6750 hc         1 J5Y       0.045367
     46 H2          10.3250     0.2200    -1.4870 ha         1 J5Y       0.117000
     47 HN2         -2.4610     0.2390    -1.2670 hn         1 J5Y       0.325500
     48 H3          11.4420    -0.1750     0.6650 ha         1 J5Y       0.132000
     49 HN3         -2.3870    -3.9410    -3.1850 hn         1 J5Y       0.352000
     50 HN4         -6.5100     0.8160     0.7240 hn         1 J5Y       0.154000
     51 H5           7.6540     0.0400     2.6420 ha         1 J5Y       0.130000
     52 H7           5.4210     0.2100     2.3850 h1         1 J5Y       0.049450
     53 H7A          6.0980     1.8120     2.0560 h1         1 J5Y       0.049450
     54 H8           4.2350     2.4170     0.6480 h1         1 J5Y       0.051450
     55 H8A          3.6640     1.7870     2.1970 h1         1 J5Y       0.051450
     56 H9           3.5060    -0.9730    -0.9110 h1         1 J5Y       0.051450
     57 H9A          4.1350     0.6090    -1.3670 h1         1 J5Y       0.051450
     58 H10          5.9350    -0.9620    -1.0430 h1         1 J5Y       0.049450
     59 H10A         5.3580    -1.4230     0.5570 h1         1 J5Y       0.049450
     60 H12          1.6300    -1.2240    -0.5630 ha         1 J5Y       0.117000
     61 H13         -0.7510    -1.0770    -0.5150 ha         1 J5Y       0.116000
     62 H16         -4.7630    -0.3280     0.3520 h1         1 J5Y       0.075700
     63 H17         -5.9440    -0.3070    -1.8350 hc         1 J5Y       0.061700
     64 H17A        -4.5180     0.3360    -2.6210 hc         1 J5Y       0.061700
     65 H19         -2.7480    -1.4980    -3.5290 h4         1 J5Y       0.212000
     66 H21         -3.4290    -6.0310    -1.5980 ha         1 J5Y       0.114000
     67 H22         -5.1470    -6.4410     0.1310 ha         1 J5Y       0.113000
     68 H23         -6.5820    -4.6110     0.9510 ha         1 J5Y       0.114000
     69 H24         -6.3400    -2.3240     0.0720 ha         1 J5Y       0.108000
     70 H28         -5.9630     4.3920    -0.3140 ha         1 J5Y       0.136000
     71 H29         -7.6660     6.0520     0.2160 h4         1 J5Y       0.017100
     72 H30        -10.1000     3.2700     2.0020 h4         1 J5Y       0.017100
     73 H31         -8.5120     1.4580     1.5490 ha         1 J5Y       0.136000
     74 H33          1.8560     2.4630     1.6860 ha         1 J5Y       0.135000
     75 N4          -6.2110     1.7010     0.3410 ns         1 J5Y      -0.141000
     76 O1          -4.5130     2.6820    -0.8210 o          1 J5Y      -0.561100
@<TRIPOS>BOND
     1     1     6 1   
     2     1    43 1   
     3     1    44 1   
     4     1    45 1   
     5     2    41 1   
     6     3    15 1   
     7     3    16 1   
     8     3    19 1   
     9     4    24 2   
    10     5    12 1   
    11     6     8 ar  
    12     6    15 ar  
    13     7    17 1   
    14     7    18 1   
    15     7    20 1   
    16     8    10 ar  
    17     8    46 1   
    18     9    24 1   
    19     9    25 1   
    20     9    47 1   
    21    10    12 ar  
    22    10    48 1   
    23    11    28 1   
    24    11    29 1   
    25    11    49 1   
    26    12    13 ar  
    27    13    15 ar  
    28    13    51 1   
    29    14    38 ar  
    30    14    39 ar  
    31    16    17 1   
    32    16    52 1   
    33    16    53 1   
    34    17    54 1   
    35    17    55 1   
    36    18    19 1   
    37    18    56 1   
    38    18    57 1   
    39    19    58 1   
    40    19    59 1   
    41    20    21 ar  
    42    20    42 ar  
    43    21    22 ar  
    44    21    60 1   
    45    22    23 ar  
    46    22    61 1   
    47    23    24 1   
    48    23    41 ar  
    49    25    26 1   
    50    25    35 1   
    51    25    62 1   
    52    26    27 1   
    53    26    63 1   
    54    26    64 1   
    55    27    28 2   
    56    27    34 1   
    57    28    65 1   
    58    29    30 ar  
    59    29    34 ar  
    60    30    31 ar  
    61    30    66 1   
    62    31    32 ar  
    63    31    67 1   
    64    32    33 ar  
    65    32    68 1   
    66    33    34 ar  
    67    33    69 1   
    68    35    75 1   
    69    35    76 2   
    70    36    37 ar  
    71    36    40 ar  
    72    36    75 1   
    73    37    38 ar  
    74    37    70 1   
    75    38    71 1   
    76    39    40 ar  
    77    39    72 1   
    78    40    73 1   
    79    41    42 ar  
    80    42    74 1   
    81    50    75 1   
@<TRIPOS>SUBSTRUCTURE
     1 J5Y         1 TEMP              0 ****  ****    0 ROOT
