@<TRIPOS>MOLECULE
J5Y
   76    81     1     0     0
SMALL
No Charge or Current Charge


@<TRIPOS>ATOM
      1 C            7.9650     2.6020     0.8310 c3         1 J5Y      -0.043800
      2 F           -0.4010    -0.3280     3.0860 f          1 J5Y      -0.155000
      3 N            6.4190     0.2510    -0.0300 nh         1 J5Y      -0.781400
      4 O           -2.8280    -0.4280     1.8850 o          1 J5Y      -0.587100
      5 Cl          10.5820    -2.1840    -1.9040 cl         1 J5Y      -0.205000
      6 C1           8.5940     1.3970     0.1350 ca         1 J5Y      -0.080300
      7 N1           3.4620     0.0970     0.2620 nh         1 J5Y      -0.799400
      8 C2           9.9830     1.3970    -0.1140 ca         1 J5Y      -0.092000
      9 N2          -2.9960     0.5020    -0.1730 ns         1 J5Y      -0.488900
     10 C3          10.5930     0.2980    -0.7390 ca         1 J5Y      -0.114000
     11 N3          -3.1750    -4.0230    -0.5790 na         1 J5Y      -0.220700
     12 C4           9.8190    -0.8070    -1.1190 ca         1 J5Y       0.136000
     13 C5           8.4380    -0.8180    -0.8790 ca         1 J5Y      -0.148000
     14 N5          -9.2290     4.9750    -1.5930 nb         1 J5Y      -0.684000
     15 C6           7.8140     0.2770    -0.2540 ca         1 J5Y       0.271000
     16 C7           5.7670    -0.9580     0.5640 c6         1 J5Y       0.177800
     17 C8           4.3730    -0.6390     1.1980 c6         1 J5Y       0.206800
     18 C9           4.1200     1.2930    -0.3580 c6         1 J5Y       0.206800
     19 C10          5.5150     0.9630    -0.9840 c6         1 J5Y       0.177800
     20 C11          2.0610     0.0750     0.4310 ca         1 J5Y       0.372000
     21 C12          1.2230     0.2580    -0.6780 ca         1 J5Y      -0.207000
     22 C13         -0.1730     0.2420    -0.5400 ca         1 J5Y      -0.025000
     23 C14         -0.7670     0.0400     0.7300 ca         1 J5Y      -0.243600
     24 C15         -2.2700     0.0110     0.8910 c          1 J5Y       0.631700
     25 C16         -4.4720     0.4360    -0.3080 c3         1 J5Y       0.041700
     26 C17         -4.8780    -0.7340    -1.2430 c3         1 J5Y      -0.009200
     27 C18         -4.3820    -2.0800    -0.7790 cc         1 J5Y      -0.151400
     28 C19         -3.3380    -2.8260    -1.3190 cd         1 J5Y      -0.156100
     29 C20         -4.1370    -3.9880     0.4140 ca         1 J5Y      -0.046200
     30 C21         -4.3830    -4.9490     1.4050 ca         1 J5Y      -0.125000
     31 C22         -5.4270    -4.7070     2.3230 ca         1 J5Y      -0.088000
     32 C23         -6.1970    -3.5220     2.2320 ca         1 J5Y      -0.134000
     33 C24         -5.9260    -2.5730     1.2230 ca         1 J5Y      -0.064000
     34 C25         -4.8800    -2.8450     0.3290 ca         1 J5Y      -0.092800
     35 C26         -5.0390     1.7890    -0.8250 c          1 J5Y       0.600100
     36 C27         -7.3150     2.9700    -0.9900 ca         1 J5Y       0.023000
     37 C28         -6.9430     4.1720    -1.6210 ca         1 J5Y      -0.208500
     38 C29         -7.9230     5.1380    -1.9010 ca         1 J5Y       0.355900
     39 C30         -9.5900     3.8230    -0.9870 ca         1 J5Y       0.355900
     40 C31         -8.6740     2.8070    -0.6730 ca         1 J5Y      -0.208500
     41 C32          0.0890    -0.1490     1.8390 ca         1 J5Y       0.273000
     42 C33          1.4820    -0.1300     1.6890 ca         1 J5Y      -0.252000
     43 H            7.4010     3.2160     0.1200 hc         1 J5Y       0.045367
     44 HA           7.2770     2.2890     1.6260 hc         1 J5Y       0.045367
     45 HB           8.7230     3.2450     1.2940 hc         1 J5Y       0.045367
     46 H2          10.5910     2.2500     0.1790 ha         1 J5Y       0.117000
     47 HN2         -2.4670     0.9160    -0.9300 hn         1 J5Y       0.325500
     48 H3          11.6630     0.3020    -0.9280 ha         1 J5Y       0.132000
     49 HN3         -2.4920    -4.7560    -0.7420 hn         1 J5Y       0.352000
     50 HN4         -6.8580     1.1260    -0.2230 hn         1 J5Y       0.154000
     51 H5           7.8510    -1.6760    -1.1890 ha         1 J5Y       0.130000
     52 H7           5.6270    -1.7240    -0.2130 h1         1 J5Y       0.049450
     53 H7A          6.4120    -1.3940     1.3410 h1         1 J5Y       0.049450
     54 H8           4.5340    -0.0380     2.1060 h1         1 J5Y       0.051450
     55 H8A          3.9140    -1.5880     1.5110 h1         1 J5Y       0.051450
     56 H9           3.4850     1.7270    -1.1440 h1         1 J5Y       0.051450
     57 H9A          4.2580     2.0720     0.4070 h1         1 J5Y       0.051450
     58 H10          5.9760     1.9020    -1.3230 h1         1 J5Y       0.049450
     59 H10A         5.3580     0.3410    -1.8770 h1         1 J5Y       0.049450
     60 H12          1.6580     0.3990    -1.6630 ha         1 J5Y       0.117000
     61 H13         -0.7760     0.3670    -1.4360 ha         1 J5Y       0.116000
     62 H16         -4.9160     0.2650     0.6810 h1         1 J5Y       0.075700
     63 H17         -5.9710    -0.7700    -1.3310 hc         1 J5Y       0.061700
     64 H17A        -4.4990    -0.5330    -2.2530 hc         1 J5Y       0.061700
     65 H19         -2.6990    -2.5900    -2.1660 h4         1 J5Y       0.212000
     66 H21         -3.7870    -5.8570     1.4660 ha         1 J5Y       0.114000
     67 H22         -5.6420    -5.4340     3.1030 ha         1 J5Y       0.113000
     68 H23         -7.0010    -3.3420     2.9420 ha         1 J5Y       0.114000
     69 H24         -6.5120    -1.6610     1.1450 ha         1 J5Y       0.108000
     70 H28         -5.9180     4.3840    -1.9050 ha         1 J5Y       0.136000
     71 H29         -7.6540     6.0750    -2.3890 h4         1 J5Y       0.017100
     72 H30        -10.6470     3.7110    -0.7470 h4         1 J5Y       0.017100
     73 H31         -9.0290     1.9030    -0.1860 ha         1 J5Y       0.136000
     74 H33          2.1030    -0.2610     2.5670 ha         1 J5Y       0.135000
     75 N4          -6.4130     1.9230    -0.6600 ns         1 J5Y      -0.141000
     76 O1          -4.3220     2.6510    -1.3250 o          1 J5Y      -0.561100
@<TRIPOS>BOND
     1     1     6 1   
     2     1    43 1   
     3     1    44 1   
     4     1    45 1   
     5     2    41 1   
     6     3    15 1   
     7     3    16 1   
     8     3    19 1   
     9     4    24 2   
    10     5    12 1   
    11     6     8 ar  
    12     6    15 ar  
    13     7    17 1   
    14     7    18 1   
    15     7    20 1   
    16     8    10 ar  
    17     8    46 1   
    18     9    24 1   
    19     9    25 1   
    20     9    47 1   
    21    10    12 ar  
    22    10    48 1   
    23    11    28 1   
    24    11    29 1   
    25    11    49 1   
    26    12    13 ar  
    27    13    15 ar  
    28    13    51 1   
    29    14    38 ar  
    30    14    39 ar  
    31    16    17 1   
    32    16    52 1   
    33    16    53 1   
    34    17    54 1   
    35    17    55 1   
    36    18    19 1   
    37    18    56 1   
    38    18    57 1   
    39    19    58 1   
    40    19    59 1   
    41    20    21 ar  
    42    20    42 ar  
    43    21    22 ar  
    44    21    60 1   
    45    22    23 ar  
    46    22    61 1   
    47    23    24 1   
    48    23    41 ar  
    49    25    26 1   
    50    25    35 1   
    51    25    62 1   
    52    26    27 1   
    53    26    63 1   
    54    26    64 1   
    55    27    28 2   
    56    27    34 1   
    57    28    65 1   
    58    29    30 ar  
    59    29    34 ar  
    60    30    31 ar  
    61    30    66 1   
    62    31    32 ar  
    63    31    67 1   
    64    32    33 ar  
    65    32    68 1   
    66    33    34 ar  
    67    33    69 1   
    68    35    75 1   
    69    35    76 2   
    70    36    37 ar  
    71    36    40 ar  
    72    36    75 1   
    73    37    38 ar  
    74    37    70 1   
    75    38    71 1   
    76    39    40 ar  
    77    39    72 1   
    78    40    73 1   
    79    41    42 ar  
    80    42    74 1   
    81    50    75 1   
@<TRIPOS>SUBSTRUCTURE
     1 J5Y         1 TEMP              0 ****  ****    0 ROOT
