@<TRIPOS>MOLECULE
J5Z
   31    33     1     0     0
SMALL
abcg2


@<TRIPOS>ATOM
      1 C1           1.3880     1.2890     1.4750 ca         1 J5Z      -0.140500
      2 N1          -0.9160     1.3750     0.8320 nu         1 J5Z      -0.977000
      3 C2           0.3860     0.9290     0.5800 ca         1 J5Z       0.333000
      4 N2          -2.2560    -0.4810     0.2780 na         1 J5Z       0.049900
      5 C3           0.7140     0.1940    -0.5590 ca         1 J5Z      -0.140500
      6 N3          -1.4170    -1.4460     0.6870 nc         1 J5Z      -0.594100
      7 C4           2.0210    -0.1950    -0.7750 ca         1 J5Z      -0.032000
      8 N4          -3.3350    -2.3490    -0.0920 nd         1 J5Z      -0.383300
      9 N5          -4.4650    -0.3010    -0.5860 nc         1 J5Z      -0.660000
     10 C8           4.4210    -0.2910    -0.1390 c3         1 J5Z       0.360300
     11 C9           3.0230     0.1590     0.1260 ca         1 J5Z      -0.217300
     12 C10          2.7000     0.9110     1.2470 ca         1 J5Z      -0.032000
     13 C11         -2.0690     0.8640     0.3340 cc         1 J5Z       0.388000
     14 C12         -3.1400     1.6270    -0.0690 cd         1 J5Z      -0.306000
     15 C13         -4.3210     1.0080    -0.5190 cd         1 J5Z       0.438300
     16 C14         -5.4580     1.8600    -0.9820 c3         1 J5Z      -0.153400
     17 C15         -3.4320    -1.0330    -0.1810 cc         1 J5Z       0.433500
     18 C16         -2.1140    -2.5330     0.4330 cd         1 J5Z       0.544200
     19 F22          5.3000     0.2080     0.7350 f          1 J5Z      -0.113333
     20 F23          4.5330    -1.6280    -0.0830 f          1 J5Z      -0.113333
     21 F24          4.8390     0.0680    -1.3630 f          1 J5Z      -0.113333
     22 H1           1.1410     1.8650     2.3570 ha         1 J5Z       0.127000
     23 HN1         -0.9940     2.3240     1.1700 hn         1 J5Z       0.509000
     24 H3          -0.0390    -0.0600    -1.2930 ha         1 J5Z       0.127000
     25 H4           2.2520    -0.7660    -1.6650 ha         1 J5Z       0.133500
     26 H10          3.4560     1.2050     1.9610 ha         1 J5Z       0.133500
     27 H12         -3.0550     2.7050    -0.0590 ha         1 J5Z       0.139000
     28 H14         -5.2240     2.3050    -1.9510 hc         1 J5Z       0.062033
     29 H14A        -6.3660     1.2720    -1.0870 hc         1 J5Z       0.062033
     30 H14B        -5.6420     2.6810    -0.2890 hc         1 J5Z       0.062033
     31 H16         -1.7080    -3.5100     0.6470 h5         1 J5Z       0.074800
@<TRIPOS>BOND
     1     1     3 ar  
     2     1    12 ar  
     3     1    22 1   
     4     2     3 1   
     5     2    13 1   
     6     2    23 1   
     7     3     5 ar  
     8     4     6 1   
     9     4    13 1   
    10     4    17 1   
    11     5     7 ar  
    12     5    24 1   
    13     6    18 2   
    14     7    11 ar  
    15     7    25 1   
    16     8    17 2   
    17     8    18 1   
    18     9    15 2   
    19     9    17 1   
    20    10    11 1   
    21    10    19 1   
    22    10    20 1   
    23    10    21 1   
    24    11    12 ar  
    25    12    26 1   
    26    13    14 2   
    27    14    15 1   
    28    14    27 1   
    29    15    16 1   
    30    16    28 1   
    31    16    29 1   
    32    16    30 1   
    33    18    31 1   
@<TRIPOS>SUBSTRUCTURE
     1 J5Z         1 TEMP              0 ****  ****    0 ROOT
