@<TRIPOS>MOLECULE
J5Z
   31    33     1     0     0
SMALL
No Charge or Current Charge


@<TRIPOS>ATOM
      1 C1           1.4170     1.2970     1.4740 ca         1 J5Z      -0.140500
      2 N1          -0.8870     1.2990     0.7460 nu         1 J5Z      -0.977000
      3 C2           0.4400     0.9120     0.5450 ca         1 J5Z       0.333000
      4 N2          -2.3600    -0.5980     0.1910 na         1 J5Z       0.049900
      5 C3           0.8220     0.1810    -0.5920 ca         1 J5Z      -0.140500
      6 N3          -1.5180    -1.6110     0.5410 nc         1 J5Z      -0.594100
      7 C4           2.1660    -0.1790    -0.7900 ca         1 J5Z      -0.032000
      8 N4          -3.5600    -2.3330    -0.2270 nd         1 J5Z      -0.383300
      9 N5          -4.6430    -0.2510    -0.6170 nc         1 J5Z      -0.660000
     10 C8           4.6180    -0.1980    -0.0600 c3         1 J5Z       0.360300
     11 C9           3.1520     0.2020     0.1450 ca         1 J5Z      -0.217300
     12 C10          2.7640     0.9410     1.2840 ca         1 J5Z      -0.032000
     13 C11         -2.0950     0.7800     0.3160 cc         1 J5Z       0.388000
     14 C12         -3.1570     1.5840    -0.0410 cd         1 J5Z      -0.306000
     15 C13         -4.4070     1.0490    -0.5090 cd         1 J5Z       0.438300
     16 C14         -5.5450     1.9450    -0.9040 c3         1 J5Z      -0.153400
     17 C15         -3.5810    -1.0220    -0.2410 cc         1 J5Z       0.433500
     18 C16         -2.2950    -2.6570     0.2530 cd         1 J5Z       0.544200
     19 F22          5.4760     0.6990     0.4770 f          1 J5Z      -0.113333
     20 F23          4.8840    -1.3930     0.5130 f          1 J5Z      -0.113333
     21 F24          4.9430    -0.3060    -1.3690 f          1 J5Z      -0.113333
     22 H1           1.1340     1.8680     2.3540 ha         1 J5Z       0.127000
     23 HN1         -0.9930     2.1630     1.2790 hn         1 J5Z       0.509000
     24 H3           0.0790    -0.1070    -1.3280 ha         1 J5Z       0.127000
     25 H4           2.4350    -0.7550    -1.6740 ha         1 J5Z       0.133500
     26 H10          3.5010     1.2400     2.0270 ha         1 J5Z       0.133500
     27 H12         -3.0430     2.6580     0.0190 ha         1 J5Z       0.139000
     28 H14         -5.8780     1.7290    -1.9260 hc         1 J5Z       0.062033
     29 H14A        -6.4000     1.8080    -0.2320 hc         1 J5Z       0.062033
     30 H14B        -5.2560     3.0010    -0.8650 hc         1 J5Z       0.062033
     31 H16         -1.9890    -3.6890     0.3820 h5         1 J5Z       0.074800
@<TRIPOS>BOND
     1     1     3 ar  
     2     1    12 ar  
     3     1    22 1   
     4     2     3 1   
     5     2    13 1   
     6     2    23 1   
     7     3     5 ar  
     8     4     6 1   
     9     4    13 1   
    10     4    17 1   
    11     5     7 ar  
    12     5    24 1   
    13     6    18 2   
    14     7    11 ar  
    15     7    25 1   
    16     8    17 2   
    17     8    18 1   
    18     9    15 2   
    19     9    17 1   
    20    10    11 1   
    21    10    19 1   
    22    10    20 1   
    23    10    21 1   
    24    11    12 ar  
    25    12    26 1   
    26    13    14 2   
    27    14    15 1   
    28    14    27 1   
    29    15    16 1   
    30    16    28 1   
    31    16    29 1   
    32    16    30 1   
    33    18    31 1   
@<TRIPOS>SUBSTRUCTURE
     1 J5Z         1 TEMP              0 ****  ****    0 ROOT
