@<TRIPOS>MOLECULE
J60
   56    58     1     0     0
SMALL
bcc


@<TRIPOS>ATOM
      1 CBA          2.1110   -13.9780    -9.9940 c3         1 J60      -0.090600
      2 CAZ          1.5750   -12.7080    -9.3550 c3         1 J60       0.175300
      3 NAX          0.7250   -12.9640    -8.2000 n3         1 J60      -0.733600
      4 CAY         -0.6030   -13.4260    -8.5800 c3         1 J60       0.175300
      5 CBB         -1.3080   -14.1710    -7.4590 c3         1 J60      -0.090600
      6 CAW          0.6820   -11.8230    -7.3050 c3         1 J60       0.147800
      7 CAV          1.8640   -11.8350    -6.3390 c3         1 J60       0.103000
      8 NAU          1.8930   -10.6640    -5.4930 ns         1 J60      -0.576900
      9 CAS          1.1920   -10.5560    -4.3490 c          1 J60       0.710700
     10 OAT          0.5560   -11.4930    -3.8770 o          1 J60      -0.615100
     11 CAN          1.2430    -9.2450    -3.6740 cc         1 J60      -0.255600
     12 CAM          1.3380    -7.9550    -4.2300 cc         1 J60      -0.046300
     13 CAQ          1.4400    -7.5850    -5.6720 c3         1 J60      -0.036800
     14 CAO          1.1320    -9.1020    -2.2830 cd         1 J60       0.006400
     15 CAR          1.0010   -10.1250    -1.2140 c3         1 J60      -0.039800
     16 NAP          1.1770    -7.8000    -2.0070 na         1 J60      -0.120100
     17 CAL          1.2930    -7.0550    -3.1570 cd         1 J60      -0.176100
     18 CAK          1.3470    -5.6480    -3.2180 cf         1 J60       0.076800
     19 CAG          1.3260    -4.6870    -2.2490 cc         1 J60      -0.208400
     20 CAE          1.3870    -3.2550    -2.4880 ca         1 J60      -0.080800
     21 CAD          1.4660    -2.4960    -3.6440 ca         1 J60      -0.077000
     22 CAA          1.5050    -1.1140    -3.5160 ca         1 J60       0.002400
     23 CL           1.6060    -0.1410    -4.9520 cl         1 J60      -0.111400
     24 CAB          1.4660    -0.4860    -2.2780 ca         1 J60      -0.092000
     25 CAC          1.3870    -1.2450    -1.1140 ca         1 J60      -0.148000
     26 CAF          1.3480    -2.6190    -1.2400 ca         1 J60       0.052600
     27 NAH          1.2680    -3.5910    -0.2590 ns         1 J60      -0.454100
     28 CAI          1.2450    -4.8490    -0.7850 c          1 J60       0.728700
     29 OAJ          1.1700    -5.8730    -0.1090 o          1 J60      -0.659500
     30 HBA1         2.6670   -14.5690    -9.2660 hc         1 J60       0.038033
     31 HBA2         1.3180   -14.6050   -10.4010 hc         1 J60       0.038033
     32 HBA3         2.7830   -13.7320   -10.8170 hc         1 J60       0.038033
     33 HAZ1         1.0510   -12.0980   -10.1090 h1         1 J60       0.025950
     34 HAZ2         2.4250   -12.1070    -9.0260 h1         1 J60       0.025950
     35 HAY1        -1.2310   -12.5940    -8.9380 h1         1 J60       0.025950
     36 HAY2        -0.5000   -14.1090    -9.4260 h1         1 J60       0.025950
     37 HAW1        -0.2340   -11.8570    -6.7130 h1         1 J60       0.038200
     38 HAW2         0.6590   -10.8670    -7.8520 h1         1 J60       0.038200
     39 HBB1        -0.7370   -15.0520    -7.1640 hc         1 J60       0.038033
     40 HBB2        -1.4500   -13.5530    -6.5720 hc         1 J60       0.038033
     41 HBB3        -2.2950   -14.5020    -7.7860 hc         1 J60       0.038033
     42 HAV1         2.8080   -11.8670    -6.8840 h1         1 J60       0.059200
     43 HAV2         1.8190   -12.7340    -5.7240 h1         1 J60       0.059200
     44 HAU          2.4580    -9.8880    -5.7950 hn         1 J60       0.313500
     45 HAQ1         0.8430    -8.2490    -6.2960 hc         1 J60       0.045700
     46 HAQ2         1.0940    -6.5700    -5.8570 hc         1 J60       0.045700
     47 HAQ3         2.4710    -7.6360    -6.0300 hc         1 J60       0.045700
     48 HAR1         1.1450    -9.6800    -0.2310 hc         1 J60       0.062367
     49 HAR2         0.0150   -10.5900    -1.2360 hc         1 J60       0.062367
     50 HAR3         1.7340   -10.9200    -1.3410 hc         1 J60       0.062367
     51 HAP          1.1410    -7.3580    -1.0850 hn         1 J60       0.350700
     52 HAK          1.4220    -5.2710    -4.2330 ha         1 J60       0.135000
     53 HAD          1.4970    -2.9570    -4.6230 ha         1 J60       0.148000
     54 HAB          1.4980     0.5930    -2.2130 ha         1 J60       0.150000
     55 HAC          1.3550    -0.7630    -0.1460 ha         1 J60       0.144000
     56 HAH          1.2230    -3.4060     0.7320 hn         1 J60       0.343500
@<TRIPOS>BOND
     1     1     2 1   
     2     1    30 1   
     3     1    31 1   
     4     1    32 1   
     5     2     3 1   
     6     2    33 1   
     7     2    34 1   
     8     3     4 1   
     9     3     6 1   
    10     4     5 1   
    11     4    35 1   
    12     4    36 1   
    13     5    39 1   
    14     5    40 1   
    15     5    41 1   
    16     6     7 1   
    17     6    37 1   
    18     6    38 1   
    19     7     8 1   
    20     7    42 1   
    21     7    43 1   
    22     8     9 1   
    23     8    44 1   
    24     9    10 2   
    25     9    11 1   
    26    11    12 1   
    27    11    14 2   
    28    12    13 1   
    29    12    17 2   
    30    13    45 1   
    31    13    46 1   
    32    13    47 1   
    33    14    15 1   
    34    14    16 1   
    35    15    48 1   
    36    15    49 1   
    37    15    50 1   
    38    16    17 1   
    39    16    51 1   
    40    17    18 1   
    41    18    19 2   
    42    18    52 1   
    43    19    20 1   
    44    19    28 1   
    45    20    21 ar  
    46    20    26 ar  
    47    21    22 ar  
    48    21    53 1   
    49    22    23 1   
    50    22    24 ar  
    51    24    25 ar  
    52    24    54 1   
    53    25    26 ar  
    54    25    55 1   
    55    26    27 1   
    56    27    28 1   
    57    27    56 1   
    58    28    29 2   
@<TRIPOS>SUBSTRUCTURE
     1 J60         1 TEMP              0 ****  ****    0 ROOT
