@<TRIPOS>MOLECULE
J60
   56    58     1     0     0
SMALL
No Charge or Current Charge


@<TRIPOS>ATOM
      1 CBA          1.7780   -14.2850   -10.2260 c3         1 J60      -0.090600
      2 CAZ          1.4930   -13.0210    -9.3880 c3         1 J60       0.175300
      3 NAX          0.7330   -13.2510    -8.1240 n3         1 J60      -0.733600
      4 CAY         -0.6150   -13.8450    -8.3660 c3         1 J60       0.175300
      5 CBB         -1.3700   -14.3080    -7.1010 c3         1 J60      -0.090600
      6 CAW          0.6780   -12.0320    -7.2570 c3         1 J60       0.147800
      7 CAV          2.0470   -11.4780    -6.7760 c3         1 J60       0.103000
      8 NAU          1.9090   -10.3490    -5.8460 ns         1 J60      -0.509900
      9 CAS          1.5420   -10.4510    -4.5270 c          1 J60       0.643700
     10 OAT          1.3390   -11.5470    -4.0250 o          1 J60      -0.615100
     11 CAN          1.4220    -9.1560    -3.7770 cc         1 J60      -0.255600
     12 CAM          1.6170    -7.8120    -4.2460 cc         1 J60      -0.046300
     13 CAQ          1.9960    -7.4210    -5.6600 c3         1 J60      -0.036800
     14 CAO          1.0810    -9.0990    -2.4440 cd         1 J60      -0.044300
     15 CAR          0.7620   -10.1910    -1.4510 c3         1 J60      -0.039800
     16 NAP          1.0690    -7.7530    -2.0970 na         1 J60      -0.069000
     17 CAL          1.3970    -6.9510    -3.1890 cd         1 J60      -0.226800
     18 CAK          1.4800    -5.4790    -3.1810 cf         1 J60       0.026800
     19 CAG          1.2730    -4.5610    -2.1790 cc         1 J60      -0.208400
     20 CAE          1.3970    -3.1060    -2.3230 ca         1 J60      -0.080800
     21 CAD          1.7320    -2.3110    -3.4320 ca         1 J60      -0.059000
     22 CAA          1.7690    -0.9100    -3.2560 ca         1 J60       0.094000
     23 Cl           2.1850     0.1250    -4.6160 cl         1 J60      -0.203000
     24 CAB          1.4750    -0.3270    -1.9990 ca         1 J60      -0.074000
     25 CAC          1.1400    -1.1410    -0.8950 ca         1 J60      -0.130000
     26 CAF          1.1120    -2.5230    -1.1010 ca         1 J60       0.052600
     27 NAH          0.8210    -3.5550    -0.2170 ns         1 J60      -0.387100
     28 CAI          0.8880    -4.8100    -0.7560 c          1 J60       0.586200
     29 OAJ          0.6710    -5.8550    -0.1600 o          1 J60      -0.584000
     30 HBA1         2.2240   -15.0700    -9.6040 hc         1 J60       0.038033
     31 HBA2         0.8660   -14.6750   -10.6910 hc         1 J60       0.038033
     32 HBA3         2.4830   -14.0470   -11.0320 hc         1 J60       0.038033
     33 HAZ1         0.9630   -12.2940   -10.0180 h1         1 J60       0.025950
     34 HAZ2         2.4730   -12.5870    -9.1570 h1         1 J60       0.025950
     35 HAY1        -1.2490   -13.1310    -8.9100 h1         1 J60       0.025950
     36 HAY2        -0.5210   -14.7340    -9.0000 h1         1 J60       0.025950
     37 HAW1         0.1020   -12.2490    -6.3500 h1         1 J60       0.038200
     38 HAW2         0.1460   -11.2270    -7.7830 h1         1 J60       0.038200
     39 HBB1        -0.7300   -14.9470    -6.4810 hc         1 J60       0.038033
     40 HBB2        -1.7090   -13.4570    -6.5000 hc         1 J60       0.038033
     41 HBB3        -2.2560   -14.8850    -7.3870 hc         1 J60       0.038033
     42 HAV1         2.6340   -11.1330    -7.6350 h1         1 J60       0.059200
     43 HAV2         2.6090   -12.2810    -6.2820 h1         1 J60       0.059200
     44 HAU          2.0720    -9.4160    -6.1950 hn         1 J60       0.313500
     45 HAQ1         1.2480    -7.7750    -6.3790 hc         1 J60       0.045700
     46 HAQ2         2.0640    -6.3380    -5.7950 hc         1 J60       0.045700
     47 HAQ3         2.9750    -7.8320    -5.9330 hc         1 J60       0.045700
     48 HAR1         0.5330    -9.7810    -0.4610 hc         1 J60       0.062367
     49 HAR2        -0.1060   -10.7760    -1.7750 hc         1 J60       0.062367
     50 HAR3         1.6100   -10.8770    -1.3360 hc         1 J60       0.062367
     51 HAP          0.8500    -7.3900    -1.1690 hn         1 J60       0.401000
     52 HAK          1.7550    -5.0210    -4.1280 ha         1 J60       0.185000
     53 HAD          1.9590    -2.7480    -4.4000 ha         1 J60       0.130000
     54 HAB          1.5090     0.7540    -1.8840 ha         1 J60       0.132000
     55 HAC          0.9110    -0.7090     0.0770 ha         1 J60       0.126000
     56 HAH          0.5770    -3.4020     0.7530 hn         1 J60       0.343500
@<TRIPOS>BOND
     1     1     2 1   
     2     1    30 1   
     3     1    31 1   
     4     1    32 1   
     5     2     3 1   
     6     2    33 1   
     7     2    34 1   
     8     3     4 1   
     9     3     6 1   
    10     4     5 1   
    11     4    35 1   
    12     4    36 1   
    13     5    39 1   
    14     5    40 1   
    15     5    41 1   
    16     6     7 1   
    17     6    37 1   
    18     6    38 1   
    19     7     8 1   
    20     7    42 1   
    21     7    43 1   
    22     8     9 1   
    23     8    44 1   
    24     9    10 2   
    25     9    11 1   
    26    11    12 1   
    27    11    14 2   
    28    12    13 1   
    29    12    17 2   
    30    13    45 1   
    31    13    46 1   
    32    13    47 1   
    33    14    15 1   
    34    14    16 1   
    35    15    48 1   
    36    15    49 1   
    37    15    50 1   
    38    16    17 1   
    39    16    51 1   
    40    17    18 1   
    41    18    19 2   
    42    18    52 1   
    43    19    20 1   
    44    19    28 1   
    45    20    21 ar  
    46    20    26 ar  
    47    21    22 ar  
    48    21    53 1   
    49    22    23 1   
    50    22    24 ar  
    51    24    25 ar  
    52    24    54 1   
    53    25    26 ar  
    54    25    55 1   
    55    26    27 1   
    56    27    28 1   
    57    27    56 1   
    58    28    29 2   
@<TRIPOS>SUBSTRUCTURE
     1 J60         1 TEMP              0 ****  ****    0 ROOT
