@<TRIPOS>MOLECULE
J61
   23    23     1     0     0
SMALL
No Charge or Current Charge


@<TRIPOS>ATOM
      1 N1           1.4070     0.2460    -0.6930 ns         1 J61      -0.370500
      2 C4          -0.9680     1.8140    -0.2330 ca         1 J61      -0.077000
      3 C5          -2.1840     2.5160    -0.2580 ca         1 J61      -0.115000
      4 C6          -3.3900     1.8480    -0.0080 ca         1 J61      -0.083000
      5 C7          -3.3760     0.4730     0.2670 ca         1 J61      -0.113000
      6 C8          -2.1650    -0.2410     0.2980 ca         1 J61       0.160000
      7 Cl          -2.2790    -1.9780     0.5980 cl         1 J61      -0.179000
      8 C3          -0.9340     0.4220     0.0450 ca         1 J61      -0.149600
      9 C2           0.3940    -0.3080     0.0800 c          1 J61       0.623700
     10 O1           0.6040    -1.2950     0.7750 o          1 J61      -0.550100
     11 N            2.7710    -0.1910    -0.6600 ns         1 J61      -0.378500
     12 C1           3.6380     0.0650     0.3900 c          1 J61       0.607100
     13 O            3.3410     0.7920     1.3290 o          1 J61      -0.581100
     14 C            4.9970    -0.6170     0.2830 c3         1 J61      -0.177100
     15 H1           1.2010     1.0810    -1.2340 hn         1 J61       0.338500
     16 H2          -0.0520     2.3740    -0.4060 ha         1 J61       0.132000
     17 H3          -2.1900     3.5840    -0.4670 ha         1 J61       0.123000
     18 H4          -4.3320     2.3930    -0.0290 ha         1 J61       0.121000
     19 H5          -4.3130    -0.0470     0.4530 ha         1 J61       0.133000
     20 H6           3.0700    -0.8430    -1.3830 hn         1 J61       0.337500
     21 H7           5.4550    -0.3510    -0.6760 hc         1 J61       0.065033
     22 H8           5.6550    -0.3800     1.1260 hc         1 J61       0.065033
     23 H9           4.8460    -1.6970     0.1780 hc         1 J61       0.065033
@<TRIPOS>BOND
     1     1     9 1   
     2     1    11 1   
     3     1    15 1   
     4     2     3 ar  
     5     2     8 ar  
     6     2    16 1   
     7     3     4 ar  
     8     3    17 1   
     9     4     5 ar  
    10     4    18 1   
    11     5     6 ar  
    12     5    19 1   
    13     6     7 1   
    14     6     8 ar  
    15     8     9 1   
    16     9    10 2   
    17    11    12 1   
    18    11    20 1   
    19    12    13 2   
    20    12    14 1   
    21    14    21 1   
    22    14    22 1   
    23    14    23 1   
@<TRIPOS>SUBSTRUCTURE
     1 J61         1 TEMP              0 ****  ****    0 ROOT
