@<TRIPOS>MOLECULE
J61
   23    23     1     0     0
SMALL
bcc


@<TRIPOS>ATOM
      1 N1           1.2940    -0.0760    -0.7330 ns         1 J61      -0.437500
      2 C4          -0.8400     1.8130     0.0280 ca         1 J61      -0.095000
      3 C5          -2.0190     2.5400    -0.0310 ca         1 J61      -0.133000
      4 C6          -3.2370     1.8770     0.0060 ca         1 J61      -0.101000
      5 C7          -3.2790     0.4940     0.1050 ca         1 J61      -0.131000
      6 C8          -2.0950    -0.2220     0.1780 ca         1 J61       0.068400
      7 CL          -2.1780    -1.9480     0.2720 cl         1 J61      -0.087400
      8 C3          -0.8630     0.4250     0.1380 ca         1 J61      -0.149600
      9 C2           0.4280    -0.3140     0.2810 c          1 J61       0.690700
     10 O1           0.6750    -1.0400     1.2200 o          1 J61      -0.550100
     11 N            2.5830    -0.4930    -0.6590 ns         1 J61      -0.445500
     12 C1           3.4840     0.1740     0.1110 c          1 J61       0.674100
     13 O            3.1990     1.1970     0.7020 o          1 J61      -0.581100
     14 C            4.8450    -0.4620     0.1600 c3         1 J61      -0.177100
     15 H1           1.0540     0.5550    -1.4830 hn         1 J61       0.338500
     16 H2           0.1120     2.3290     0.0100 ha         1 J61       0.150000
     17 H3          -1.9840     3.6180    -0.1040 ha         1 J61       0.141000
     18 H4          -4.1620     2.4340    -0.0460 ha         1 J61       0.139000
     19 H5          -4.2270    -0.0250     0.1240 ha         1 J61       0.151000
     20 H6           2.8060    -1.3830    -1.0780 hn         1 J61       0.337500
     21 H7           5.6010     0.2840    -0.0850 hc         1 J61       0.065033
     22 H8           5.0410    -0.8070     1.1750 hc         1 J61       0.065033
     23 H9           4.9560    -1.3060    -0.5170 hc         1 J61       0.065033
@<TRIPOS>BOND
     1     1     9 1   
     2     1    11 1   
     3     1    15 1   
     4     2     3 ar  
     5     2     8 ar  
     6     2    16 1   
     7     3     4 ar  
     8     3    17 1   
     9     4     5 ar  
    10     4    18 1   
    11     5     6 ar  
    12     5    19 1   
    13     6     7 1   
    14     6     8 ar  
    15     8     9 1   
    16     9    10 2   
    17    11    12 1   
    18    11    20 1   
    19    12    13 2   
    20    12    14 1   
    21    14    21 1   
    22    14    22 1   
    23    14    23 1   
@<TRIPOS>SUBSTRUCTURE
     1 J61         1 TEMP              0 ****  ****    0 ROOT
