@<TRIPOS>MOLECULE
J62
   55    58     1     0     0
SMALL
No Charge or Current Charge


@<TRIPOS>ATOM
      1 C20        -13.2250     8.7820     0.5490 ca         1 J62      -0.116500
      2 C21        -13.5770     9.7400     1.5260 ca         1 J62      -0.085000
      3 C22        -12.5960    10.2930     2.3660 ca         1 J62      -0.146000
      4 C24        -10.8820     8.9450     1.2730 ca         1 J62      -0.110300
      5 C28        -18.2370     8.9410    -1.8400 c6         1 J62       0.148300
      6 C02        -24.8230     9.4550    -4.1770 ca         1 J62      -0.065300
      7 C03        -24.5160    10.7110    -3.6220 ca         1 J62      -0.108000
      8 C04        -23.2570    10.9410    -3.0420 ca         1 J62      -0.085500
      9 C05        -23.8540     8.4360    -4.1490 ca         1 J62      -0.108000
     10 C06        -22.5930     8.6640    -3.5700 ca         1 J62      -0.085500
     11 C07        -22.2860     9.9230    -3.0090 ca         1 J62      -0.111000
     12 C09        -19.7230     8.7290    -2.2880 c6         1 J62       0.250300
     13 C11        -19.7530     6.4560    -1.4420 c6         1 J62       0.159300
     14 C12        -20.6510     5.4670    -0.6290 c3         1 J62       0.171600
     15 C14        -18.2920     6.5440    -0.8930 c6         1 J62       0.133300
     16 C16        -17.5050     7.5610    -1.7780 c6         1 J62       0.066300
     17 C18        -15.5950     8.4720    -0.3420 cc         1 J62      -0.187000
     18 C19        -14.2560     8.1980    -0.3350 cd         1 J62       0.257500
     19 C23        -11.2570     9.8980     2.2390 ca         1 J62       0.163000
     20 C25        -11.8710     8.3920     0.4330 ca         1 J62      -0.061000
     21 C31         -9.4270     8.5130     1.1330 c3         1 J62      -0.040800
     22 F30        -10.3270    10.4420     3.0570 f          1 J62      -0.186000
     23 N17        -16.0880     7.6700    -1.3470 na         1 J62       0.123800
     24 N26        -13.9830     7.2560    -1.3050 nd         1 J62      -0.352000
     25 N27        -15.0900     6.9340    -1.9170 nc         1 J62      -0.198800
     26 O10        -20.3720     7.7680    -1.4260 os         1 J62      -0.414000
     27 O13        -21.9810     5.3290    -1.1730 oh         1 J62      -0.724000
     28 O15        -18.2750     6.9450     0.4970 oh         1 J62      -0.708000
     29 O29        -17.5420     9.8390    -2.7370 oh         1 J62      -0.709000
     30 S08        -20.6960    10.3090    -2.2540 ss         1 J62      -0.156000
     31 H211       -14.6090    10.0610     1.6420 ha         1 J62       0.113000
     32 H221       -12.8720    11.0300     3.1160 ha         1 J62       0.132000
     33 H281       -18.2580     9.3670    -0.8260 h1         1 J62       0.069700
     34 H011       -26.1720     9.4530    -5.8750 hc         1 J62       0.045367
     35 H012       -26.4840     8.1550    -4.7100 hc         1 J62       0.045367
     36 H013       -26.9640     9.8130    -4.3310 hc         1 J62       0.045367
     37 H041       -23.0330    11.9170    -2.6170 ha         1 J62       0.128500
     38 H051       -24.0770     7.4610    -4.5770 ha         1 J62       0.115500
     39 H061       -21.8740     7.8520    -3.5670 ha         1 J62       0.128500
     40 H091       -19.7360     8.3720    -3.3280 h2         1 J62       0.072700
     41 H111       -19.7230     6.0940    -2.4800 h1         1 J62       0.060700
     42 H122       -20.1500     4.4890    -0.6110 h1         1 J62       0.043700
     43 H121       -20.7040     5.8230     0.4090 h1         1 J62       0.043700
     44 H141       -17.8270     5.5510    -1.0040 h1         1 J62       0.062700
     45 H161       -17.4900     7.1600    -2.8010 h1         1 J62       0.106700
     46 H181       -16.2030     9.1360     0.2550 h4         1 J62       0.172000
     47 H251       -11.5810     7.6560    -0.3140 ha         1 J62       0.137000
     48 H311        -8.7850     9.3690     0.8920 hc         1 J62       0.049033
     49 H313        -9.0580     8.0710     2.0670 hc         1 J62       0.049033
     50 H312        -9.2940     7.7680     0.3400 hc         1 J62       0.049033
     51 H131       -22.4950     4.7730    -0.5410 ho         1 J62       0.510000
     52 H151       -17.4590     6.5720     0.9050 ho         1 J62       0.512000
     53 H291       -17.9320    10.7370    -2.6190 ho         1 J62       0.527000
     54 H031       -25.2530    11.5110    -3.6390 ha         1 J62       0.115500
     55 C01        -26.1850     9.2050    -4.8070 c3         1 J62      -0.048800
@<TRIPOS>BOND
     1     1     2 ar  
     2     1    18 1   
     3     1    20 ar  
     4     2     3 ar  
     5     2    31 1   
     6     3    19 ar  
     7     3    32 1   
     8     4    19 ar  
     9     4    20 ar  
    10     4    21 1   
    11     5    12 1   
    12     5    16 1   
    13     5    29 1   
    14     5    33 1   
    15     6     7 ar  
    16     6     9 ar  
    17     6    55 1   
    18     7     8 ar  
    19     7    54 1   
    20     8    11 ar  
    21     8    37 1   
    22     9    10 ar  
    23     9    38 1   
    24    10    11 ar  
    25    10    39 1   
    26    11    30 1   
    27    12    26 1   
    28    12    30 1   
    29    12    40 1   
    30    13    14 1   
    31    13    15 1   
    32    13    26 1   
    33    13    41 1   
    34    14    27 1   
    35    14    42 1   
    36    14    43 1   
    37    15    16 1   
    38    15    28 1   
    39    15    44 1   
    40    16    23 1   
    41    16    45 1   
    42    17    18 2   
    43    17    23 1   
    44    17    46 1   
    45    18    24 1   
    46    19    22 1   
    47    20    47 1   
    48    21    48 1   
    49    21    49 1   
    50    21    50 1   
    51    23    25 1   
    52    24    25 2   
    53    27    51 1   
    54    28    52 1   
    55    29    53 1   
    56    34    55 1   
    57    35    55 1   
    58    36    55 1   
@<TRIPOS>SUBSTRUCTURE
     1 J62         1 TEMP              0 ****  ****    0 ROOT
