@<TRIPOS>MOLECULE
J62
   55    58     1     0     0
SMALL
abcg2


@<TRIPOS>ATOM
      1 C20        -13.3490     8.8900     0.4520 ca         1 J62      -0.116500
      2 C21        -13.6080     9.6750     1.5790 ca         1 J62      -0.085000
      3 C22        -12.5630    10.1450     2.3620 ca         1 J62      -0.146000
      4 C24        -10.9520     9.0450     0.8970 ca         1 J62      -0.110300
      5 C28        -18.5930     8.8680    -1.4120 c6         1 J62       0.148300
      6 C02        -24.4320     9.6620    -4.5200 ca         1 J62      -0.065300
      7 C03        -23.8900    10.8930    -4.1420 ca         1 J62      -0.108000
      8 C04        -22.8640    10.9720    -3.2100 ca         1 J62      -0.085500
      9 C05        -23.9230     8.5110    -3.9180 ca         1 J62      -0.108000
     10 C06        -22.9130     8.5760    -2.9640 ca         1 J62      -0.085500
     11 C07        -22.3680     9.8100    -2.6150 ca         1 J62      -0.111000
     12 C09        -20.0600     8.5170    -1.7080 c6         1 J62       0.250300
     13 C11        -19.7730     6.2390    -1.1310 c6         1 J62       0.159300
     14 C12        -20.4330     5.1290    -0.3480 c3         1 J62       0.171600
     15 C14        -18.3050     6.4280    -0.7600 c6         1 J62       0.133300
     16 C16        -17.7490     7.6070    -1.5760 c6         1 J62       0.066300
     17 C18        -15.8100     8.4810    -0.1920 cc         1 J62      -0.187000
     18 C19        -14.4440     8.3900    -0.3810 cd         1 J62       0.257500
     19 C23        -11.2690     9.8220     2.0050 ca         1 J62       0.163000
     20 C25        -12.0210     8.5870     0.1310 ca         1 J62      -0.061000
     21 C31         -9.5260     8.7220     0.5570 c3         1 J62      -0.040800
     22 F30        -10.2510    10.2880     2.7770 f          1 J62      -0.186000
     23 N17        -16.3500     7.8590    -1.2600 na         1 J62       0.123800
     24 N26        -14.2400     7.7160    -1.5500 nd         1 J62      -0.352000
     25 N27        -15.3890     7.3990    -2.0760 nc         1 J62      -0.198800
     26 O10        -20.5040     7.4490    -0.8930 os         1 J62      -0.414000
     27 O13        -21.6750     4.8090    -0.9750 oh         1 J62      -0.724000
     28 O15        -18.2030     6.6590     0.6400 oh         1 J62      -0.708000
     29 O29        -18.0930     9.8260    -2.3270 oh         1 J62      -0.709000
     30 S08        -21.0880     9.9790    -1.3930 ss         1 J62      -0.156000
     31 H211       -14.6250     9.9290     1.8490 ha         1 J62       0.113000
     32 H221       -12.7450    10.7560     3.2370 ha         1 J62       0.132000
     33 H281       -18.5250     9.2320    -0.3820 h1         1 J62       0.069700
     34 H011       -25.1820     9.9660    -6.5150 hc         1 J62       0.045367
     35 H012       -25.8680     8.5620    -5.6900 hc         1 J62       0.045367
     36 H013       -26.3850    10.1970    -5.2540 hc         1 J62       0.045367
     37 H041       -22.4400    11.9340    -2.9520 ha         1 J62       0.128500
     38 H051       -24.3310     7.5440    -4.1880 ha         1 J62       0.115500
     39 H061       -22.5580     7.6700    -2.4940 ha         1 J62       0.128500
     40 H091       -20.1600     8.2610    -2.7690 h2         1 J62       0.072700
     41 H111       -19.8230     5.9950    -2.2000 h1         1 J62       0.060700
     42 H122       -19.7660     4.2600    -0.3430 h1         1 J62       0.043700
     43 H121       -20.5870     5.4530     0.6840 h1         1 J62       0.043700
     44 H141       -17.7540     5.5280    -1.0400 h1         1 J62       0.062700
     45 H161       -17.7580     7.3250    -2.6300 h1         1 J62       0.106700
     46 H181       -16.4060     8.9210     0.5860 h4         1 J62       0.172000
     47 H251       -11.8130     7.9770    -0.7380 ha         1 J62       0.137000
     48 H311        -8.9480     9.6330     0.3800 hc         1 J62       0.049033
     49 H313        -9.0380     8.1870     1.3750 hc         1 J62       0.049033
     50 H312        -9.4780     8.1040    -0.3380 hc         1 J62       0.049033
     51 H131       -22.1550     4.2010    -0.4010 ho         1 J62       0.510000
     52 H151       -17.3430     6.3450     0.9470 ho         1 J62       0.512000
     53 H291       -18.6340    10.6250    -2.2510 ho         1 J62       0.527000
     54 H031       -24.2630    11.8030    -4.5950 ha         1 J62       0.115500
     55 C01        -25.5270     9.5880    -5.5500 c3         1 J62      -0.048800
@<TRIPOS>BOND
     1     1     2 ar  
     2     1    18 1   
     3     1    20 ar  
     4     2     3 ar  
     5     2    31 1   
     6     3    19 ar  
     7     3    32 1   
     8     4    19 ar  
     9     4    20 ar  
    10     4    21 1   
    11     5    12 1   
    12     5    16 1   
    13     5    29 1   
    14     5    33 1   
    15     6     7 ar  
    16     6     9 ar  
    17     6    55 1   
    18     7     8 ar  
    19     7    54 1   
    20     8    11 ar  
    21     8    37 1   
    22     9    10 ar  
    23     9    38 1   
    24    10    11 ar  
    25    10    39 1   
    26    11    30 1   
    27    12    26 1   
    28    12    30 1   
    29    12    40 1   
    30    13    14 1   
    31    13    15 1   
    32    13    26 1   
    33    13    41 1   
    34    14    27 1   
    35    14    42 1   
    36    14    43 1   
    37    15    16 1   
    38    15    28 1   
    39    15    44 1   
    40    16    23 1   
    41    16    45 1   
    42    17    18 2   
    43    17    23 1   
    44    17    46 1   
    45    18    24 1   
    46    19    22 1   
    47    20    47 1   
    48    21    48 1   
    49    21    49 1   
    50    21    50 1   
    51    23    25 1   
    52    24    25 2   
    53    27    51 1   
    54    28    52 1   
    55    29    53 1   
    56    34    55 1   
    57    35    55 1   
    58    36    55 1   
@<TRIPOS>SUBSTRUCTURE
     1 J62         1 TEMP              0 ****  ****    0 ROOT
