@<TRIPOS>MOLECULE
J63
   58    60     1     0     0
SMALL
abcg2


@<TRIPOS>ATOM
      1 O01          1.7850    -3.8470    -0.5210 o          1 J63      -0.489000
      2 C02          1.3520    -2.7980    -0.0880 c          1 J63       0.602200
      3 C03          1.5520    -1.4770    -0.6630 cc         1 J63      -0.248400
      4 C04          2.4370    -1.3990    -1.8900 c3         1 J63       0.011500
      5 C05          3.8450    -1.9550    -1.6640 c3         1 J63      -0.088600
      6 C06          1.7680    -2.0270    -3.1140 c3         1 J63      -0.088600
      7 C07          0.9240    -0.4050    -0.1120 cd         1 J63       0.113400
      8 C08          1.0660     1.0000    -0.6260 c3         1 J63      -0.062200
      9 C09          2.0500     1.8670     0.1810 c6         1 J63      -0.057700
     10 C10          3.5080     1.5090    -0.1000 c6         1 J63      -0.074900
     11 C11          4.4690     2.4170     0.6610 c6         1 J63      -0.073400
     12 C12          4.2070     3.8890     0.3580 c6         1 J63      -0.075400
     13 C13          2.7540     4.2550     0.6390 c6         1 J63      -0.073400
     14 C14          1.7950     3.3450    -0.1210 c6         1 J63      -0.074900
     15 N15          0.1130    -0.5470     1.0150 n          1 J63      -0.339000
     16 C16         -0.7310     0.5550     1.4990 c3         1 J63       0.318000
     17 O17         -1.8010     0.8240     0.6620 os         1 J63      -0.457000
     18 C18         -2.8350    -0.1490     0.6570 c3         1 J63       0.198900
     19 C19         -4.0240     0.4530    -0.0320 ca         1 J63      -0.095300
     20 C20         -4.7860     1.4210     0.6190 ca         1 J63      -0.087000
     21 C21         -5.8700     2.0080    -0.0160 ca         1 J63      -0.114000
     22 C22         -6.2050     1.6330    -1.3130 ca         1 J63      -0.099000
     23 C23         -5.4500     0.6700    -1.9680 ca         1 J63      -0.114000
     24 C24         -4.3630     0.0850    -1.3290 ca         1 J63      -0.087000
     25 C25         -0.0450    -1.7490     1.6510 c          1 J63       0.594000
     26 N26          0.6070    -2.8000     1.0770 n          1 J63      -0.244900
     27 O27          0.4580    -4.0130     1.6760 oh         1 J63      -0.408100
     28 O28         -0.7220    -1.9310     2.6510 o          1 J63      -0.588000
     29 H041         2.5780    -0.3460    -2.1250 hc         1 J63       0.040700
     30 H051         3.8560    -3.0360    -1.5560 hc         1 J63       0.041033
     31 H052         4.4740    -1.6980    -2.5180 hc         1 J63       0.041033
     32 H053         4.3070    -1.5200    -0.7760 hc         1 J63       0.041033
     33 H061         0.8100    -1.5490    -3.3250 hc         1 J63       0.041033
     34 H063         2.4030    -1.8990    -3.9930 hc         1 J63       0.041033
     35 H062         1.5950    -3.0940    -2.9830 hc         1 J63       0.041033
     36 H082         1.3870     0.9820    -1.6650 hc         1 J63       0.074700
     37 H081         0.0870     1.4810    -0.6520 hc         1 J63       0.074700
     38 H091         1.8790     1.7110     1.2540 hc         1 J63       0.047700
     39 H101         3.7010     0.4670     0.1640 hc         1 J63       0.042950
     40 H102         3.6960     1.6010    -1.1770 hc         1 J63       0.042950
     41 H112         4.3570     2.2420     1.7370 hc         1 J63       0.040950
     42 H111         5.5000     2.1560     0.4120 hc         1 J63       0.040950
     43 H122         4.8770     4.5210     0.9440 hc         1 J63       0.040700
     44 H121         4.4340     4.0870    -0.6950 hc         1 J63       0.040700
     45 H131         2.5590     4.1690     1.7140 hc         1 J63       0.040950
     46 H132         2.5650     5.2980     0.3730 hc         1 J63       0.040950
     47 H142         1.9050     3.5120    -1.1990 hc         1 J63       0.042950
     48 H141         0.7600     3.5990     0.1280 hc         1 J63       0.042950
     49 H162        -1.0520     0.2940     2.5080 h2         1 J63       0.084700
     50 H161        -0.1370     1.4610     1.5610 h2         1 J63       0.084700
     51 H181        -2.5180    -1.0580     0.1330 h1         1 J63       0.044700
     52 H182        -3.0910    -0.4320     1.6840 h1         1 J63       0.044700
     53 H201        -4.5340     1.7140     1.6310 ha         1 J63       0.113500
     54 H211        -6.4580     2.7550     0.5010 ha         1 J63       0.114500
     55 H221        -7.0510     2.0890    -1.8090 ha         1 J63       0.114000
     56 H231        -5.7050     0.3740    -2.9770 ha         1 J63       0.114500
     57 H241        -3.7750    -0.6630    -1.8470 ha         1 J63       0.113500
     58 H271        -0.2260    -3.8650     2.3530 ho         1 J63       0.471000
@<TRIPOS>BOND
     1     1     2 2   
     2     2     3 1   
     3     2    26 1   
     4     3     4 1   
     5     3     7 2   
     6     4     5 1   
     7     4     6 1   
     8     4    29 1   
     9     5    30 1   
    10     5    31 1   
    11     5    32 1   
    12     6    33 1   
    13     6    34 1   
    14     6    35 1   
    15     7     8 1   
    16     7    15 1   
    17     8     9 1   
    18     8    36 1   
    19     8    37 1   
    20     9    10 1   
    21     9    14 1   
    22     9    38 1   
    23    10    11 1   
    24    10    39 1   
    25    10    40 1   
    26    11    12 1   
    27    11    41 1   
    28    11    42 1   
    29    12    13 1   
    30    12    43 1   
    31    12    44 1   
    32    13    14 1   
    33    13    45 1   
    34    13    46 1   
    35    14    47 1   
    36    14    48 1   
    37    15    16 1   
    38    15    25 1   
    39    16    17 1   
    40    16    49 1   
    41    16    50 1   
    42    17    18 1   
    43    18    19 1   
    44    18    51 1   
    45    18    52 1   
    46    19    20 ar  
    47    19    24 ar  
    48    20    21 ar  
    49    20    53 1   
    50    21    22 ar  
    51    21    54 1   
    52    22    23 ar  
    53    22    55 1   
    54    23    24 ar  
    55    23    56 1   
    56    24    57 1   
    57    25    26 1   
    58    25    28 2   
    59    26    27 1   
    60    27    58 1   
@<TRIPOS>SUBSTRUCTURE
     1 J63         1 TEMP              0 ****  ****    0 ROOT
