@<TRIPOS>MOLECULE
J63
   58    60     1     0     0
SMALL
No Charge or Current Charge


@<TRIPOS>ATOM
      1 O01          1.6980    -3.7740    -0.5610 o          1 J63      -0.489000
      2 C02          1.2530    -2.7540    -0.0490 c          1 J63       0.602200
      3 C03          1.4390    -1.3780    -0.6040 cc         1 J63      -0.248400
      4 C04          2.3110    -1.3130    -1.8730 c3         1 J63       0.011500
      5 C05          3.7420    -1.8860    -1.7050 c3         1 J63      -0.088600
      6 C06          1.5890    -1.8860    -3.1140 c3         1 J63      -0.088600
      7 C07          0.8250    -0.2800     0.0160 cd         1 J63       0.113400
      8 C08          0.9690     1.1470    -0.5320 c3         1 J63      -0.062200
      9 C09          2.0730     2.0250     0.1470 c6         1 J63      -0.057700
     10 C10          3.5020     1.4250     0.0180 c6         1 J63      -0.074900
     11 C11          4.5570     2.3170     0.7170 c6         1 J63      -0.073400
     12 C12          4.5240     3.7620     0.1630 c6         1 J63      -0.075400
     13 C13          3.1070     4.3710     0.2860 c6         1 J63      -0.073400
     14 C14          2.0490     3.4770    -0.4080 c6         1 J63      -0.074900
     15 N15          0.0330    -0.4860     1.1660 n          1 J63      -0.339000
     16 C16         -0.7270     0.6270     1.8050 c3         1 J63       0.318000
     17 O17         -1.8960     0.9400     1.0220 os         1 J63      -0.457000
     18 C18         -2.9230    -0.0660     1.0070 c3         1 J63       0.198900
     19 C19         -4.0690     0.4340     0.1400 ca         1 J63      -0.095300
     20 C20         -5.2360     0.9610     0.7290 ca         1 J63      -0.087000
     21 C21         -6.2910     1.4200    -0.0790 ca         1 J63      -0.114000
     22 C22         -6.1860     1.3560    -1.4790 ca         1 J63      -0.099000
     23 C23         -5.0240     0.8340    -2.0710 ca         1 J63      -0.114000
     24 C24         -3.9680     0.3750    -1.2640 ca         1 J63      -0.087000
     25 C25         -0.0990    -1.7490     1.7660 c          1 J63       0.594000
     26 N26          0.5130    -2.8320     1.1350 n          1 J63      -0.244900
     27 O27          0.3610    -4.1540     1.7550 oh         1 J63      -0.408100
     28 O28         -0.7490    -1.9160     2.7920 o          1 J63      -0.588000
     29 H041         2.5060    -0.2730    -2.1310 hc         1 J63       0.040700
     30 H051         3.7570    -2.9810    -1.7170 hc         1 J63       0.041033
     31 H052         4.3840    -1.5450    -2.5260 hc         1 J63       0.041033
     32 H053         4.1900    -1.5450    -0.7650 hc         1 J63       0.041033
     33 H061         0.6130    -1.4030    -3.2450 hc         1 J63       0.041033
     34 H063         2.1800    -1.7030    -4.0200 hc         1 J63       0.041033
     35 H062         1.4290    -2.9660    -3.0290 hc         1 J63       0.041033
     36 H082         1.1090     1.1460    -1.6150 hc         1 J63       0.074700
     37 H081         0.0130     1.6720    -0.4510 hc         1 J63       0.074700
     38 H091         1.8320     2.0690     1.2170 hc         1 J63       0.047700
     39 H101         3.5300     0.4220     0.4630 hc         1 J63       0.042950
     40 H102         3.7700     1.3140    -1.0410 hc         1 J63       0.042950
     41 H112         4.3720     2.3300     1.8000 hc         1 J63       0.040950
     42 H111         5.5590     1.8870     0.5770 hc         1 J63       0.040950
     43 H122         5.2470     4.3860     0.7050 hc         1 J63       0.040700
     44 H121         4.8370     3.7620    -0.8900 hc         1 J63       0.040700
     45 H131         2.8480     4.4950     1.3470 hc         1 J63       0.040950
     46 H132         3.0940     5.3760    -0.1570 hc         1 J63       0.040950
     47 H142         2.2320     3.4660    -1.4920 hc         1 J63       0.042950
     48 H141         1.0520     3.9170    -0.2650 hc         1 J63       0.042950
     49 H162        -0.9980     0.3620     2.8330 h2         1 J63       0.084700
     50 H161        -0.0670     1.4960     1.8750 h2         1 J63       0.084700
     51 H181        -2.5460    -1.0080     0.5870 h1         1 J63       0.044700
     52 H182        -3.2850    -0.2690     2.0240 h1         1 J63       0.044700
     53 H201        -5.3240     1.0160     1.8120 ha         1 J63       0.113500
     54 H211        -7.1900     1.8250     0.3810 ha         1 J63       0.114500
     55 H221        -7.0030     1.7120    -2.1030 ha         1 J63       0.114000
     56 H231        -4.9410     0.7860    -3.1550 ha         1 J63       0.114500
     57 H241        -3.0690    -0.0260    -1.7290 ha         1 J63       0.113500
     58 H271        -0.4650    -4.5260     1.3720 ho         1 J63       0.471000
@<TRIPOS>BOND
     1     1     2 2   
     2     2     3 1   
     3     2    26 1   
     4     3     4 1   
     5     3     7 2   
     6     4     5 1   
     7     4     6 1   
     8     4    29 1   
     9     5    30 1   
    10     5    31 1   
    11     5    32 1   
    12     6    33 1   
    13     6    34 1   
    14     6    35 1   
    15     7     8 1   
    16     7    15 1   
    17     8     9 1   
    18     8    36 1   
    19     8    37 1   
    20     9    10 1   
    21     9    14 1   
    22     9    38 1   
    23    10    11 1   
    24    10    39 1   
    25    10    40 1   
    26    11    12 1   
    27    11    41 1   
    28    11    42 1   
    29    12    13 1   
    30    12    43 1   
    31    12    44 1   
    32    13    14 1   
    33    13    45 1   
    34    13    46 1   
    35    14    47 1   
    36    14    48 1   
    37    15    16 1   
    38    15    25 1   
    39    16    17 1   
    40    16    49 1   
    41    16    50 1   
    42    17    18 1   
    43    18    19 1   
    44    18    51 1   
    45    18    52 1   
    46    19    20 ar  
    47    19    24 ar  
    48    20    21 ar  
    49    20    53 1   
    50    21    22 ar  
    51    21    54 1   
    52    22    23 ar  
    53    22    55 1   
    54    23    24 ar  
    55    23    56 1   
    56    24    57 1   
    57    25    26 1   
    58    25    28 2   
    59    26    27 1   
    60    27    58 1   
@<TRIPOS>SUBSTRUCTURE
     1 J63         1 TEMP              0 ****  ****    0 ROOT
