@<TRIPOS>MOLECULE
J64
   19    19     1     0     0
SMALL
No Charge or Current Charge


@<TRIPOS>ATOM
      1 N1          -2.3740     0.0210    -0.2190 ns         1 J64      -0.506900
      2 C4          -0.0880     0.5350     0.4510 cc         1 J64      -0.251300
      3 C5           0.4770     1.3920    -0.4650 cd         1 J64      -0.125000
      4 C6           1.8750     1.1970    -0.6390 cd         1 J64      -0.128000
      5 C7           2.3770     0.1920     0.1450 cc         1 J64      -0.043000
      6 C1          -4.4100    -0.6190    -1.4060 c3         1 J64      -0.177100
      7 C2          -3.7320    -0.1580    -0.1230 c          1 J64       0.597100
      8 O1          -4.3470     0.0400     0.9140 o          1 J64      -0.609100
      9 C3          -1.5240     0.4610     0.8790 c3         1 J64       0.177300
     10 Cl1          4.0360    -0.3210     0.1940 cl         1 J64      -0.150000
     11 S1           1.1260    -0.5530     1.1360 ss         1 J64       0.312000
     12 H1          -1.9440    -0.1630    -1.1160 hn         1 J64       0.317500
     13 H2          -0.0890     2.1460    -1.0050 ha         1 J64       0.130000
     14 H3           2.4840     1.7830    -1.3210 ha         1 J64       0.143000
     15 H4          -4.1720     0.0870    -2.2100 hc         1 J64       0.061700
     16 H5          -3.9260    -1.5390    -1.7540 hc         1 J64       0.061700
     17 H6          -5.4910    -0.7500    -1.2890 hc         1 J64       0.061700
     18 H7          -1.8580     1.4520     1.2150 h1         1 J64       0.064200
     19 H8          -1.6310    -0.2400     1.7180 h1         1 J64       0.064200
@<TRIPOS>BOND
     1     1     7 1   
     2     1     9 1   
     3     1    12 1   
     4     2     3 2   
     5     2     9 1   
     6     2    11 1   
     7     3     4 1   
     8     3    13 1   
     9     4     5 2   
    10     4    14 1   
    11     5    10 1   
    12     5    11 1   
    13     6     7 1   
    14     6    15 1   
    15     6    16 1   
    16     6    17 1   
    17     7     8 2   
    18     9    18 1   
    19     9    19 1   
@<TRIPOS>SUBSTRUCTURE
     1 J64         1 TEMP              0 ****  ****    0 ROOT
