@<TRIPOS>MOLECULE
J64
   19    19     1     0     0
SMALL
abcg2


@<TRIPOS>ATOM
      1 N1          -2.6790     0.6550    -0.3630 ns         1 J64      -0.506900
      2 C4          -0.3050     0.8570     0.2750 cc         1 J64      -0.251300
      3 C5           0.7020     1.6770    -0.1340 cd         1 J64      -0.125000
      4 C6           1.9520     1.0160    -0.2900 cd         1 J64      -0.128000
      5 C7           1.8510    -0.3020     0.0130 cc         1 J64      -0.043000
      6 C1          -4.1080    -1.0770    -1.2560 c3         1 J64      -0.177100
      7 C2          -3.0880    -0.6180    -0.2470 c          1 J64       0.597100
      8 O1          -2.6700    -1.3530     0.6400 o          1 J64      -0.609100
      9 C3          -1.7260     1.2380     0.5540 c3         1 J64       0.177300
     10 CL1          3.1020    -1.4690    -0.0480 cl         1 J64      -0.150000
     11 S1           0.2600    -0.7640     0.4800 ss         1 J64       0.312000
     12 H1          -2.9880     1.2100    -1.1430 hn         1 J64       0.317500
     13 H2           0.5590     2.7330    -0.3170 ha         1 J64       0.130000
     14 H3           2.8640     1.4980    -0.6100 ha         1 J64       0.143000
     15 H4          -4.2640    -0.3680    -2.0660 hc         1 J64       0.061700
     16 H5          -3.8000    -2.0320    -1.6790 hc         1 J64       0.061700
     17 H6          -5.0630    -1.2350    -0.7530 hc         1 J64       0.061700
     18 H7          -1.8070     2.3210     0.4730 h1         1 J64       0.064200
     19 H8          -2.0010     0.9730     1.5760 h1         1 J64       0.064200
@<TRIPOS>BOND
     1     1     7 1   
     2     1     9 1   
     3     1    12 1   
     4     2     3 2   
     5     2     9 1   
     6     2    11 1   
     7     3     4 1   
     8     3    13 1   
     9     4     5 2   
    10     4    14 1   
    11     5    10 1   
    12     5    11 1   
    13     6     7 1   
    14     6    15 1   
    15     6    16 1   
    16     6    17 1   
    17     7     8 2   
    18     9    18 1   
    19     9    19 1   
@<TRIPOS>SUBSTRUCTURE
     1 J64         1 TEMP              0 ****  ****    0 ROOT
