@<TRIPOS>MOLECULE
J66
   17    18     1     0     0
SMALL
No Charge or Current Charge


@<TRIPOS>ATOM
      1 C02         26.0020   -17.9100    41.3970 c          1 J66       0.593600
      2 C05         25.5870   -17.4760    43.6740 c          1 J66       0.593600
      3 C06         25.4280   -16.2030    42.9060 ca         1 J66      -0.145100
      4 C07         25.0930   -14.9180    43.3570 ca         1 J66      -0.044000
      5 C08         25.0120   -13.8830    42.3990 ca         1 J66      -0.096000
      6 C09         25.2620   -14.1440    41.0290 ca         1 J66      -0.096000
      7 C10         25.5970   -15.4440    40.5930 ca         1 J66      -0.044000
      8 C11         25.6740   -16.4600    41.5570 ca         1 J66      -0.145100
      9 N03         25.9240   -18.4240    42.6980 n          1 J66      -0.281900
     10 O01         26.2740   -18.5160    40.3690 o          1 J66      -0.461000
     11 O04         26.1890   -19.8200    43.0130 oh         1 J66      -0.387100
     12 O12         25.4520   -17.6570    44.8770 o          1 J66      -0.461000
     13 H1          24.9020   -14.7230    44.4110 ha         1 J66       0.140000
     14 H2          24.7540   -12.8750    42.7180 ha         1 J66       0.125000
     15 H3          25.1940   -13.3350    40.3050 ha         1 J66       0.125000
     16 H4          25.7910   -15.6510    39.5420 ha         1 J66       0.140000
     17 H5          25.3190   -20.2750    42.9410 ho         1 J66       0.447000
@<TRIPOS>BOND
     1     1     8 1   
     2     1     9 1   
     3     1    10 2   
     4     2     3 1   
     5     2     9 1   
     6     2    12 2   
     7     3     4 ar  
     8     3     8 ar  
     9     4     5 ar  
    10     4    13 1   
    11     5     6 ar  
    12     5    14 1   
    13     6     7 ar  
    14     6    15 1   
    15     7     8 ar  
    16     7    16 1   
    17     9    11 1   
    18    11    17 1   
@<TRIPOS>SUBSTRUCTURE
     1 J66         1 TEMP              0 ****  ****    0 ROOT
