@<TRIPOS>MOLECULE
J66
   17    18     1     0     0
SMALL
abcg2


@<TRIPOS>ATOM
      1 C02         25.9750   -17.8980    41.4000 c          1 J66       0.593600
      2 C05         25.5640   -17.4670    43.6570 c          1 J66       0.593600
      3 C06         25.4150   -16.2030    42.9000 ca         1 J66      -0.145100
      4 C07         25.0950   -14.9400    43.3480 ca         1 J66      -0.044000
      5 C08         25.0280   -13.9230    42.3970 ca         1 J66      -0.096000
      6 C09         25.2740   -14.1790    41.0520 ca         1 J66      -0.096000
      7 C10         25.5960   -15.4610    40.6090 ca         1 J66      -0.044000
      8 C11         25.6600   -16.4590    41.5570 ca         1 J66      -0.145100
      9 N03         25.8680   -18.4130    42.6860 n          1 J66      -0.281900
     10 O01         26.2570   -18.5230    40.4140 o          1 J66      -0.461000
     11 O04         26.1980   -19.6820    42.9890 oh         1 J66      -0.387100
     12 O12         25.4540   -17.6790    44.8330 o          1 J66      -0.461000
     13 H1          24.9040   -14.7410    44.3940 ha         1 J66       0.140000
     14 H2          24.7810   -12.9170    42.7090 ha         1 J66       0.125000
     15 H3          25.2150   -13.3680    40.3380 ha         1 J66       0.125000
     16 H4          25.7880   -15.6590    39.5630 ha         1 J66       0.140000
     17 H5          25.3820   -20.2030    42.9410 ho         1 J66       0.447000
@<TRIPOS>BOND
     1     1     8 1   
     2     1     9 1   
     3     1    10 2   
     4     2     3 1   
     5     2     9 1   
     6     2    12 2   
     7     3     4 ar  
     8     3     8 ar  
     9     4     5 ar  
    10     4    13 1   
    11     5     6 ar  
    12     5    14 1   
    13     6     7 ar  
    14     6    15 1   
    15     7     8 ar  
    16     7    16 1   
    17     9    11 1   
    18    11    17 1   
@<TRIPOS>SUBSTRUCTURE
     1 J66         1 TEMP              0 ****  ****    0 ROOT
