@<TRIPOS>MOLECULE
J69
   15    14     1     0     0
SMALL
No Charge or Current Charge


@<TRIPOS>ATOM
      1 C01         37.3070   -22.6730    16.6850 c2         1 J69      -0.247000
      2 C02         37.1700   -21.3360    16.5010 ce         1 J69      -0.164400
      3 C03         37.2340   -20.7320    15.1010 c3         1 J69      -0.043900
      4 C04         36.9490   -20.4020    17.6690 c          1 J69       0.591300
      5 C06         36.6210   -18.0960    18.2990 c3         1 J69       0.151900
      6 O05         36.8350   -19.0900    17.2800 os         1 J69      -0.438100
      7 O07         36.8810   -20.7750    18.8340 o          1 J69      -0.491000
      8 H1          37.2650   -23.1260    17.6770 ha         1 J69       0.179000
      9 H2          37.4670   -23.3580    15.8520 ha         1 J69       0.179000
     10 H3          38.0540   -20.0090    15.0170 hc         1 J69       0.046700
     11 H4          37.3970   -21.4960    14.3320 hc         1 J69       0.046700
     12 H5          36.3020   -20.2120    14.8490 hc         1 J69       0.046700
     13 H6          36.5490   -17.0980    17.8490 h1         1 J69       0.047700
     14 H7          35.6900   -18.2900    18.8470 h1         1 J69       0.047700
     15 H8          37.4520   -18.0860    19.0160 h1         1 J69       0.047700
@<TRIPOS>BOND
     1     1     2 2   
     2     1     8 1   
     3     1     9 1   
     4     2     3 1   
     5     2     4 1   
     6     3    10 1   
     7     3    11 1   
     8     3    12 1   
     9     4     6 1   
    10     4     7 2   
    11     5     6 1   
    12     5    13 1   
    13     5    14 1   
    14     5    15 1   
@<TRIPOS>SUBSTRUCTURE
     1 J69         1 TEMP              0 ****  ****    0 ROOT
