@<TRIPOS>MOLECULE
J69
   15    14     1     0     0
SMALL
bcc


@<TRIPOS>ATOM
      1 C01         37.2720   -22.6060    16.7150 c2         1 J69      -0.147000
      2 C02         37.1710   -21.2990    16.4770 ce         1 J69      -0.164400
      3 C03         37.2500   -20.7120    15.1010 c3         1 J69      -0.043900
      4 C04         36.9690   -20.3980    17.6480 c          1 J69       0.640300
      5 C06         36.6170   -18.1650    18.3030 c3         1 J69       0.128700
      6 O05         36.8180   -19.1340    17.2770 os         1 J69      -0.414900
      7 O07         36.9420   -20.7570    18.8000 o          1 J69      -0.540000
      8 H1          37.2110   -23.0160    17.7140 ha         1 J69       0.129000
      9 H2          37.4180   -23.3100    15.9060 ha         1 J69       0.129000
     10 H3          38.0690   -19.9960    15.0130 hc         1 J69       0.046700
     11 H4          37.4130   -21.4970    14.3640 hc         1 J69       0.046700
     12 H5          36.3330   -20.1850    14.8330 hc         1 J69       0.046700
     13 H6          36.5050   -17.2110    17.7960 h1         1 J69       0.047700
     14 H7          35.7160   -18.3750    18.8810 h1         1 J69       0.047700
     15 H8          37.4710   -18.1170    18.9780 h1         1 J69       0.047700
@<TRIPOS>BOND
     1     1     2 2   
     2     1     8 1   
     3     1     9 1   
     4     2     3 1   
     5     2     4 1   
     6     3    10 1   
     7     3    11 1   
     8     3    12 1   
     9     4     6 1   
    10     4     7 2   
    11     5     6 1   
    12     5    13 1   
    13     5    14 1   
    14     5    15 1   
@<TRIPOS>SUBSTRUCTURE
     1 J69         1 TEMP              0 ****  ****    0 ROOT
