@<TRIPOS>MOLECULE
J6A
   53    55     1     0     0
SMALL
abcg2


@<TRIPOS>ATOM
      1 CAP         -6.0910    -0.3920     0.7520 c6         1 J6A      -0.073400
      2 CAN         -7.5850    -0.2830     1.0480 c6         1 J6A      -0.071900
      3 CAM         -8.2540    -1.6530     1.0410 c6         1 J6A      -0.075400
      4 CAO         -8.0050    -2.3740    -0.2790 c6         1 J6A      -0.071900
      5 CAQ         -6.5130    -2.4800    -0.5770 c6         1 J6A      -0.073400
      6 CBC         -5.8240    -1.1140    -0.5700 c6         1 J6A      -0.048700
      7 CAR         -4.3340    -1.2920    -0.8360 c3         1 J6A      -0.148400
      8 CAU         -3.5700    -0.0050    -1.0390 c          1 J6A       0.603100
      9 OAA         -4.0770     1.0300    -1.4460 o          1 J6A      -0.601100
     10 N           -2.2520    -0.0730    -0.7710 ns         1 J6A      -0.502900
     11 CA          -1.3880     1.0520    -1.0120 c3         1 J6A       0.091000
     12 C           -1.8290     2.2440    -0.1540 c          1 J6A       0.603100
     13 O           -2.1360     2.1310     1.0130 o          1 J6A      -0.553100
     14 NAS         -1.7110     3.4170    -0.8030 ns         1 J6A      -0.369400
     15 OAC         -2.1330     4.5590    -0.1860 oh         1 J6A      -0.427100
     16 CBA          0.0400     0.7070    -0.6680 ca         1 J6A      -0.102300
     17 CAJ          0.3760     0.1780     0.5760 ca         1 J6A      -0.091500
     18 CAH          1.6890    -0.1510     0.8670 ca         1 J6A      -0.096000
     19 CAI          1.0480     0.9110    -1.6030 ca         1 J6A      -0.091500
     20 CAG          2.3640     0.5930    -1.3070 ca         1 J6A      -0.096000
     21 CAY          2.7040     0.0500    -0.0690 cp         1 J6A      -0.033000
     22 CAZ          4.0990    -0.3120     0.2430 cp         1 J6A       0.007000
     23 CAK          5.1550     0.4720    -0.2210 ca         1 J6A      -0.139500
     24 CAW          6.4530     0.1190     0.0800 ca         1 J6A       0.162000
     25 FAD          7.4700     0.8660    -0.3490 f          1 J6A      -0.153000
     26 CBB          6.7360    -1.0030     0.8370 ca         1 J6A       0.090000
     27 FAF          7.9940    -1.3310     1.1230 f          1 J6A      -0.141000
     28 CAX          5.6830    -1.7770     1.2920 ca         1 J6A       0.162000
     29 FAE          5.9600    -2.8660     2.0090 f          1 J6A      -0.153000
     30 CAL          4.3760    -1.4460     1.0060 ca         1 J6A      -0.139500
     31 H1          -5.6430     0.6040     0.7400 hc         1 J6A       0.040700
     32 H2          -5.6010    -0.9450     1.5630 hc         1 J6A       0.040700
     33 H3          -7.7380     0.2120     2.0100 hc         1 J6A       0.040200
     34 H4          -8.0580     0.3570     0.2950 hc         1 J6A       0.040200
     35 H5          -7.8430    -2.2550     1.8590 hc         1 J6A       0.037700
     36 H6          -9.3260    -1.5600     1.2310 hc         1 J6A       0.037700
     37 H7          -8.4530    -3.3700    -0.2610 hc         1 J6A       0.040200
     38 H8          -8.5010    -1.8310    -1.0920 hc         1 J6A       0.040200
     39 H9          -6.0410    -3.1250     0.1740 hc         1 J6A       0.040700
     40 H10         -6.3510    -2.9680    -1.5420 hc         1 J6A       0.040700
     41 H11         -6.2530    -0.5160    -1.3830 hc         1 J6A       0.068700
     42 H12         -3.8810    -1.8710    -0.0260 hc         1 J6A       0.056700
     43 H13         -4.1960    -1.8880    -1.7460 hc         1 J6A       0.056700
     44 H14         -1.8470    -0.9430    -0.4650 hn         1 J6A       0.326500
     45 H15         -1.4300     1.3290    -2.0710 h1         1 J6A       0.064700
     46 H16         -1.7250     3.4700    -1.8120 hn         1 J6A       0.332500
     47 H17         -1.3300     5.0180     0.0920 ho         1 J6A       0.446000
     48 H18         -0.3840     0.0260     1.3320 ha         1 J6A       0.127500
     49 H19          1.9240    -0.5500     1.8450 ha         1 J6A       0.121000
     50 H20          0.8040     1.3100    -2.5800 ha         1 J6A       0.127500
     51 H21          3.1220     0.7460    -2.0640 ha         1 J6A       0.121000
     52 H22          4.9780     1.3700    -0.7980 ha         1 J6A       0.142000
     53 H23          3.5840    -2.0930     1.3610 ha         1 J6A       0.142000
@<TRIPOS>BOND
     1     1     2 1   
     2     1     6 1   
     3     1    31 1   
     4     1    32 1   
     5     2     3 1   
     6     2    33 1   
     7     2    34 1   
     8     3     4 1   
     9     3    35 1   
    10     3    36 1   
    11     4     5 1   
    12     4    37 1   
    13     4    38 1   
    14     5     6 1   
    15     5    39 1   
    16     5    40 1   
    17     6     7 1   
    18     6    41 1   
    19     7     8 1   
    20     7    42 1   
    21     7    43 1   
    22     8     9 2   
    23     8    10 1   
    24    10    11 1   
    25    10    44 1   
    26    11    12 1   
    27    11    16 1   
    28    11    45 1   
    29    12    13 2   
    30    12    14 1   
    31    14    15 1   
    32    14    46 1   
    33    15    47 1   
    34    16    17 ar  
    35    16    19 ar  
    36    17    18 ar  
    37    17    48 1   
    38    18    21 ar  
    39    18    49 1   
    40    19    20 ar  
    41    19    50 1   
    42    20    21 ar  
    43    20    51 1   
    44    21    22 1   
    45    22    23 ar  
    46    22    30 ar  
    47    23    24 ar  
    48    23    52 1   
    49    24    25 1   
    50    24    26 ar  
    51    26    27 1   
    52    26    28 ar  
    53    28    29 1   
    54    28    30 ar  
    55    30    53 1   
@<TRIPOS>SUBSTRUCTURE
     1 J6A         1 TEMP              0 ****  ****    0 ROOT
