@<TRIPOS>MOLECULE
J6A
   53    55     1     0     0
SMALL
No Charge or Current Charge


@<TRIPOS>ATOM
      1 CAP         -5.5230    -0.6590     0.6660 c6         1 J6A      -0.073400
      2 CAN         -6.8530    -0.5100     1.4470 c6         1 J6A      -0.071900
      3 CAM         -7.6430    -1.8400     1.4710 c6         1 J6A      -0.075400
      4 CAO         -7.8930    -2.3650     0.0360 c6         1 J6A      -0.071900
      5 CAQ         -6.5630    -2.5170    -0.7440 c6         1 J6A      -0.073400
      6 CBC         -5.7640    -1.1840    -0.7790 c6         1 J6A      -0.048700
      7 CAR         -4.4330    -1.3510    -1.5730 c3         1 J6A      -0.148400
      8 CAU         -3.6780    -0.0330    -1.7880 c          1 J6A       0.603100
      9 OAA         -4.0640     0.8280    -2.5650 o          1 J6A      -0.601100
     10 N           -2.5100     0.0970    -1.0740 ns         1 J6A      -0.502900
     11 CA          -1.6070     1.2630    -1.1560 c3         1 J6A       0.091000
     12 C           -2.1130     2.4630    -0.2950 c          1 J6A       0.603100
     13 O           -3.0420     2.3820     0.5050 o          1 J6A      -0.553100
     14 NAS         -1.3960     3.6450    -0.4700 ns         1 J6A      -0.369400
     15 OAC         -1.8830     4.9030     0.0580 oh         1 J6A      -0.427100
     16 CBA         -0.1890     0.8500    -0.7660 ca         1 J6A      -0.102300
     17 CAJ          0.1140     0.4960     0.5630 ca         1 J6A      -0.091500
     18 CAH          1.4190     0.1150     0.9170 ca         1 J6A      -0.096000
     19 CAI          0.8310     0.8130    -1.7350 ca         1 J6A      -0.091500
     20 CAG          2.1360     0.4330    -1.3780 ca         1 J6A      -0.096000
     21 CAY          2.4590     0.0760    -0.0450 cp         1 J6A      -0.033000
     22 CAZ          3.8500    -0.3300     0.3330 cp         1 J6A       0.007000
     23 CAK          4.9800     0.2690    -0.2800 ca         1 J6A      -0.139500
     24 CAW          6.2850    -0.1110     0.0750 ca         1 J6A       0.162000
     25 FAD          7.3400     0.4850    -0.5270 f          1 J6A      -0.153000
     26 CBB          6.4940    -1.1010     1.0510 ca         1 J6A       0.090000
     27 FAF          7.7530    -1.4680     1.3930 f          1 J6A      -0.141000
     28 CAX          5.3870    -1.7060     1.6690 ca         1 J6A       0.162000
     29 FAE          5.5700    -2.6630     2.6070 f          1 J6A      -0.153000
     30 CAL          4.0820    -1.3260     1.3160 ca         1 J6A      -0.139500
     31 H1          -5.0140     0.3130     0.6380 hc         1 J6A       0.040700
     32 H2          -4.8560    -1.3450     1.2070 hc         1 J6A       0.040700
     33 H3          -6.6470    -0.1810     2.4740 hc         1 J6A       0.040200
     34 H4          -7.4660     0.2770     0.9850 hc         1 J6A       0.040200
     35 H5          -7.0870    -2.5910     2.0480 hc         1 J6A       0.037700
     36 H6          -8.6020    -1.6960     1.9870 hc         1 J6A       0.037700
     37 H7          -8.4130    -3.3320     0.0780 hc         1 J6A       0.040200
     38 H8          -8.5600    -1.6750    -0.5000 hc         1 J6A       0.040200
     39 H9          -5.9540    -3.3050    -0.2790 hc         1 J6A       0.040700
     40 H10         -6.7780    -2.8540    -1.7680 hc         1 J6A       0.040700
     41 H11         -6.3630    -0.4390    -1.3250 hc         1 J6A       0.068700
     42 H12         -3.7870    -2.0610    -1.0420 hc         1 J6A       0.056700
     43 H13         -4.6630    -1.7600    -2.5640 hc         1 J6A       0.056700
     44 H14         -2.2600    -0.6670    -0.4590 hn         1 J6A       0.326500
     45 H15         -1.5950     1.6120    -2.1970 h1         1 J6A       0.064700
     46 H16         -0.7120     3.7070    -1.2240 hn         1 J6A       0.332500
     47 H17         -1.1040     5.2700     0.5390 ho         1 J6A       0.446000
     48 H18         -0.6610     0.5160     1.3270 ha         1 J6A       0.127500
     49 H19          1.6280    -0.1390     1.9530 ha         1 J6A       0.121000
     50 H20          0.6150     1.0740    -2.7690 ha         1 J6A       0.127500
     51 H21          2.9010     0.4000    -2.1500 ha         1 J6A       0.121000
     52 H22          4.8480     1.0470    -1.0280 ha         1 J6A       0.142000
     53 H23          3.2440    -1.8210     1.8000 ha         1 J6A       0.142000
@<TRIPOS>BOND
     1     1     2 1   
     2     1     6 1   
     3     1    31 1   
     4     1    32 1   
     5     2     3 1   
     6     2    33 1   
     7     2    34 1   
     8     3     4 1   
     9     3    35 1   
    10     3    36 1   
    11     4     5 1   
    12     4    37 1   
    13     4    38 1   
    14     5     6 1   
    15     5    39 1   
    16     5    40 1   
    17     6     7 1   
    18     6    41 1   
    19     7     8 1   
    20     7    42 1   
    21     7    43 1   
    22     8     9 2   
    23     8    10 1   
    24    10    11 1   
    25    10    44 1   
    26    11    12 1   
    27    11    16 1   
    28    11    45 1   
    29    12    13 2   
    30    12    14 1   
    31    14    15 1   
    32    14    46 1   
    33    15    47 1   
    34    16    17 ar  
    35    16    19 ar  
    36    17    18 ar  
    37    17    48 1   
    38    18    21 ar  
    39    18    49 1   
    40    19    20 ar  
    41    19    50 1   
    42    20    21 ar  
    43    20    51 1   
    44    21    22 1   
    45    22    23 ar  
    46    22    30 ar  
    47    23    24 ar  
    48    23    52 1   
    49    24    25 1   
    50    24    26 ar  
    51    26    27 1   
    52    26    28 ar  
    53    28    29 1   
    54    28    30 ar  
    55    30    53 1   
@<TRIPOS>SUBSTRUCTURE
     1 J6A         1 TEMP              0 ****  ****    0 ROOT
