@<TRIPOS>MOLECULE
J6B
   76    80     1     0     0
SMALL
No Charge or Current Charge


@<TRIPOS>ATOM
      1 C1           7.5380    -2.0580    -0.7960 c5         1 J6B       0.150300
      2 C2           6.0730    -2.3230    -0.3600 c5         1 J6B       0.076700
      3 C3           6.2410    -2.8530     1.1160 c5         1 J6B       0.127300
      4 O5           8.2410    -1.7470     0.4260 os         1 J6B      -0.442000
      5 N6           5.4890    -0.9530    -0.2890 n          1 J6B      -0.404800
      6 C7           7.4220    -0.7730    -1.6740 c5         1 J6B       0.153500
      7 C8           6.4030     0.0790    -0.8500 c5         1 J6B       0.066000
      8 C11          3.6060     0.7300     0.1390 c3         1 J6B       0.038700
      9 C12          4.1070    -0.7340    -0.0840 c          1 J6B       0.589100
     10 C14          4.1770     1.3330     1.4570 c3         1 J6B      -0.085400
     11 C19          4.4020     3.3040     3.0620 c3         1 J6B      -0.090600
     12 C21         -0.1570     1.5770    -0.3280 ca         1 J6B      -0.116600
     13 C22         -1.0140     2.5190    -0.9420 ca         1 J6B      -0.102000
     14 C24         -2.9950     1.3730    -0.0730 ca         1 J6B      -0.130500
     15 C27         -4.4490     1.2130     0.0350 cc         1 J6B       0.379500
     16 C30         -6.3450     0.1530     0.2050 cd         1 J6B       0.718300
     17 C33         -8.6280    -0.8040     0.6840 c6         1 J6B       0.216800
     18 C34         -9.5550    -1.9410     0.1480 c6         1 J6B       0.153300
     19 O13          3.3380    -1.6870    -0.0160 o          1 J6B      -0.587100
     20 C4           7.7780    -2.7040     1.3910 c5         1 J6B       0.107600
     21 O31          5.8080    -4.2160     1.2340 oh         1 J6B      -0.695000
     22 N39          8.7120    -0.0910    -1.9400 n8         1 J6B      -0.980200
     23 C17          4.0110     2.8680     1.6310 c3         1 J6B      -0.057700
     24 C18          4.8120     3.6750     0.5810 c3         1 J6B      -0.090600
     25 N15          2.1240     0.7690     0.1370 ns         1 J6B      -0.477900
     26 O20          1.8460     2.6470    -1.1100 o          1 J6B      -0.599100
     27 C26         -0.7470     0.5150     0.3980 ca         1 J6B      -0.111000
     28 C25         -2.1440     0.4110     0.5120 ca         1 J6B      -0.068000
     29 C23         -2.4090     2.4140    -0.8250 ca         1 J6B       0.172000
     30 F39         -3.1760     3.3190    -1.4740 f          1 J6B      -0.176000
     31 N31         -5.0490    -0.0180     0.0360 nc         1 J6B      -0.742000
     32 S29         -6.9260     1.8110     0.3940 ss         1 J6B      -0.100400
     33 C28         -5.2510     2.3110     0.2420 cd         1 J6B      -0.257000
     34 N32         -7.2060    -0.9490     0.2340 nh         1 J6B      -0.760300
     35 C37         -6.6660    -2.3410     0.3820 c6         1 J6B       0.216800
     36 C36         -7.6470    -3.4340    -0.1470 c6         1 J6B       0.153300
     37 N35         -9.0210    -3.3070     0.4250 n3         1 J6B      -0.714600
     38 C38         -9.9310    -4.3790    -0.0340 c3         1 J6B       0.152100
     39 H1           8.0070    -2.9130    -1.3030 h1         1 J6B       0.077700
     40 H2           5.5240    -2.9980    -1.0300 h1         1 J6B       0.107700
     41 H3           5.6740    -2.2230     1.8160 h1         1 J6B       0.048700
     42 H4           6.9710    -1.0270    -2.6450 h1         1 J6B       0.079700
     43 H5           5.8870     0.8010    -1.4950 h1         1 J6B       0.050700
     44 H6           6.9000     0.6290    -0.0400 h1         1 J6B       0.050700
     45 H7           3.9690     1.3100    -0.7160 h1         1 J6B       0.083700
     46 H8           3.6960     0.8210     2.3000 hc         1 J6B       0.052700
     47 H9           5.2440     1.0960     1.5380 hc         1 J6B       0.052700
     48 H10          5.4580     3.0860     3.2620 hc         1 J6B       0.035367
     49 H11          4.2410     4.3800     3.1980 hc         1 J6B       0.035367
     50 H12          3.7950     2.7770     3.8080 hc         1 J6B       0.035367
     51 H13         -0.6000     3.3380    -1.5240 ha         1 J6B       0.155000
     52 H15         -8.6660    -0.8090     1.7830 h1         1 J6B       0.057200
     53 H16        -10.5500    -1.8210     0.6010 h1         1 J6B       0.043700
     54 H17         -9.6810    -1.8000    -0.9360 h1         1 J6B       0.043700
     55 H18          7.9930    -2.3420     2.4050 h1         1 J6B       0.055200
     56 H19          8.3130    -3.6510     1.2330 h1         1 J6B       0.055200
     57 H20          5.7840    -4.4330     2.1960 ho         1 J6B       0.506000
     58 H21          8.5400     0.9010    -2.1400 hn         1 J6B       0.405000
     59 H22          9.2400    -0.0720    -1.0580 hn         1 J6B       0.405000
     60 H24          2.9500     3.1150     1.5040 hc         1 J6B       0.048700
     61 H25          4.4670     3.4640    -0.4370 hc         1 J6B       0.035367
     62 H26          4.6940     4.7520     0.7510 hc         1 J6B       0.035367
     63 H27          5.8810     3.4370     0.6380 hc         1 J6B       0.035367
     64 H28          1.6330     0.0140     0.5980 hn         1 J6B       0.324500
     65 H29         -0.1390    -0.2450     0.8810 ha         1 J6B       0.115000
     66 H30         -2.5690    -0.4190     1.0730 ha         1 J6B       0.139000
     67 H31         -4.9650     3.3510     0.3240 h4         1 J6B       0.172000
     68 H32         -5.7160    -2.4600    -0.1580 h1         1 J6B       0.057200
     69 H33         -6.4570    -2.5410     1.4430 h1         1 J6B       0.057200
     70 H34         -7.6890    -3.3590    -1.2440 h1         1 J6B       0.043700
     71 H35         -7.2260    -4.4220     0.0890 h1         1 J6B       0.043700
     72 H37         -9.5280    -5.3670     0.2260 h1         1 J6B       0.033700
     73 H38        -10.9160    -4.2800     0.4400 h1         1 J6B       0.033700
     74 H39        -10.0670    -4.3390    -1.1230 h1         1 J6B       0.033700
     75 C16          1.3450     1.7280    -0.4760 c          1 J6B       0.614700
     76 H14         -9.0550     0.1520     0.3520 h1         1 J6B       0.057200
@<TRIPOS>BOND
     1     1     2 1   
     2     1     4 1   
     3     1     6 1   
     4     1    39 1   
     5     2     3 1   
     6     2     5 1   
     7     2    40 1   
     8     3    20 1   
     9     3    21 1   
    10     3    41 1   
    11     4    20 1   
    12     5     7 1   
    13     5     9 1   
    14     6     7 1   
    15     6    22 1   
    16     6    42 1   
    17     7    43 1   
    18     7    44 1   
    19     8     9 1   
    20     8    10 1   
    21     8    25 1   
    22     8    45 1   
    23     9    19 2   
    24    10    23 1   
    25    10    46 1   
    26    10    47 1   
    27    11    23 1   
    28    11    48 1   
    29    11    49 1   
    30    11    50 1   
    31    12    13 ar  
    32    12    27 ar  
    33    12    75 1   
    34    13    29 ar  
    35    13    51 1   
    36    14    15 1   
    37    14    28 ar  
    38    14    29 ar  
    39    15    31 1   
    40    15    33 2   
    41    16    31 2   
    42    16    32 1   
    43    16    34 1   
    44    17    18 1   
    45    17    34 1   
    46    17    52 1   
    47    17    76 1   
    48    18    37 1   
    49    18    53 1   
    50    18    54 1   
    51    20    55 1   
    52    20    56 1   
    53    21    57 1   
    54    22    58 1   
    55    22    59 1   
    56    23    24 1   
    57    23    60 1   
    58    24    61 1   
    59    24    62 1   
    60    24    63 1   
    61    25    64 1   
    62    25    75 1   
    63    26    75 2   
    64    27    28 ar  
    65    27    65 1   
    66    28    66 1   
    67    29    30 1   
    68    32    33 1   
    69    33    67 1   
    70    34    35 1   
    71    35    36 1   
    72    35    68 1   
    73    35    69 1   
    74    36    37 1   
    75    36    70 1   
    76    36    71 1   
    77    37    38 1   
    78    38    72 1   
    79    38    73 1   
    80    38    74 1   
@<TRIPOS>SUBSTRUCTURE
     1 J6B         1 TEMP              0 ****  ****    0 ROOT
