@<TRIPOS>MOLECULE
J6B
   76    80     1     0     0
SMALL
abcg2


@<TRIPOS>ATOM
      1 C1           7.6930    -0.5000    -1.4940 c5         1 J6B       0.150300
      2 C2           6.3640    -1.2260    -1.2650 c5         1 J6B       0.076700
      3 C3           6.7410    -2.4760    -0.4450 c5         1 J6B       0.127300
      4 O5           8.5570    -0.9890    -0.4870 os         1 J6B      -0.442000
      5 N6           5.5550    -0.2580    -0.5300 n          1 J6B      -0.404800
      6 C7           7.3980     0.9720    -1.2610 c5         1 J6B       0.153500
      7 C8           6.3190     0.9260    -0.1730 c5         1 J6B       0.066000
      8 C11          3.5140     0.4640     0.6320 c3         1 J6B       0.038700
      9 C12          4.2640    -0.5200    -0.2680 c          1 J6B       0.589100
     10 C14          3.7990     0.1110     2.0950 c3         1 J6B      -0.085400
     11 C19          3.5050     0.5570     4.5270 c3         1 J6B      -0.090600
     12 C21          0.1290     0.7430    -0.9850 ca         1 J6B      -0.116600
     13 C22         -0.3600     0.8550    -2.2820 ca         1 J6B      -0.102000
     14 C24         -2.6420     0.5290    -1.4940 ca         1 J6B      -0.130500
     15 C27         -4.0880     0.4150    -1.7110 cc         1 J6B       0.379500
     16 C30         -6.1000    -0.1390    -0.9770 cd         1 J6B       0.718300
     17 C33         -8.4580    -0.3580    -0.4110 c6         1 J6B       0.216800
     18 C34         -9.3380    -1.4460     0.1730 c6         1 J6B       0.153300
     19 O13          3.7160    -1.5340    -0.6740 o          1 J6B      -0.587100
     20 C4           8.2710    -2.3620    -0.3500 c5         1 J6B       0.107600
     21 O31          6.3070    -3.6430    -1.0920 oh         1 J6B      -0.695000
     22 N39          8.5750     1.7630    -1.0030 n8         1 J6B      -0.980200
     23 C17          3.1270     1.0230     3.1240 c3         1 J6B      -0.057700
     24 C18          3.5040     2.4860     2.9240 c3         1 J6B      -0.090600
     25 N15          2.1020     0.4070     0.3680 ns         1 J6B      -0.477900
     26 O20          2.3020     1.4470    -1.6160 o          1 J6B      -0.599100
     27 C26         -0.7700     0.5310     0.0570 ca         1 J6B      -0.111000
     28 C25         -2.1250     0.4230    -0.1990 ca         1 J6B      -0.068000
     29 C23         -1.7130     0.7410    -2.5090 ca         1 J6B       0.172000
     30 F39         -2.1380     0.8310    -3.7790 f          1 J6B      -0.176000
     31 N31         -4.8350    -0.1130    -0.6890 nc         1 J6B      -0.742000
     32 S29         -6.4780     0.5320    -2.5490 ss         1 J6B      -0.100400
     33 C28         -4.7970     0.8150    -2.8010 cd         1 J6B      -0.257000
     34 N32         -7.0580    -0.6610    -0.1830 nh         1 J6B      -0.760300
     35 C37         -6.7160    -0.9940     1.1900 c6         1 J6B       0.216800
     36 C36         -7.6490    -2.0660     1.7160 c6         1 J6B       0.153300
     37 N35         -9.0320    -1.6650     1.5700 n3         1 J6B      -0.714600
     38 C38         -9.9360    -2.6200     2.1710 c3         1 J6B       0.152100
     39 H1           8.1050    -0.6980    -2.4900 h1         1 J6B       0.077700
     40 H2           5.8700    -1.5110    -2.1960 h1         1 J6B       0.107700
     41 H3           6.3050    -2.3920     0.5580 h1         1 J6B       0.048700
     42 H4           6.9290     1.3470    -2.1760 h1         1 J6B       0.079700
     43 H5           5.7060     1.8260    -0.1800 h1         1 J6B       0.050700
     44 H6           6.7730     0.8330     0.8200 h1         1 J6B       0.050700
     45 H7           3.8510     1.4830     0.4370 h1         1 J6B       0.083700
     46 H8           3.4990    -0.9270     2.2720 hc         1 J6B       0.052700
     47 H9           4.8820     0.1450     2.2510 hc         1 J6B       0.052700
     48 H10          4.5800     0.6610     4.6940 hc         1 J6B       0.035367
     49 H11          2.9920     1.1460     5.2890 hc         1 J6B       0.035367
     50 H12          3.2430    -0.4900     4.6850 hc         1 J6B       0.035367
     51 H13          0.3080     1.0200    -3.1170 ha         1 J6B       0.155000
     52 H15         -8.7170     0.6120     0.0280 h1         1 J6B       0.057200
     53 H16        -10.3790    -1.1330     0.0750 h1         1 J6B       0.043700
     54 H17         -9.2190    -2.3670    -0.4230 h1         1 J6B       0.043700
     55 H18          8.6780    -2.7110     0.6000 h1         1 J6B       0.055200
     56 H19          8.7260    -2.9480    -1.1610 h1         1 J6B       0.055200
     57 H20          6.5060    -4.3940    -0.5260 ho         1 J6B       0.506000
     58 H21          8.3200     2.7380    -0.9200 hn         1 J6B       0.405000
     59 H22          8.9900     1.4990    -0.1180 hn         1 J6B       0.405000
     60 H24          2.0410     0.9290     3.0210 hc         1 J6B       0.048700
     61 H25          3.1540     2.8790     1.9680 hc         1 J6B       0.035367
     62 H26          3.0690     3.1100     3.7060 hc         1 J6B       0.035367
     63 H27          4.5890     2.6170     2.9620 hc         1 J6B       0.035367
     64 H28          1.5500    -0.2380     0.9100 hn         1 J6B       0.324500
     65 H29         -0.4360     0.4740     1.0850 ha         1 J6B       0.115000
     66 H30         -2.8110     0.2650     0.6210 ha         1 J6B       0.139000
     67 H31         -4.4660     1.2860    -3.7100 h4         1 J6B       0.172000
     68 H32         -5.6900    -1.3520     1.2250 h1         1 J6B       0.057200
     69 H33         -6.7780    -0.1000     1.8230 h1         1 J6B       0.057200
     70 H34         -7.4390    -3.0160     1.1950 h1         1 J6B       0.043700
     71 H35         -7.4290    -2.2250     2.7740 h1         1 J6B       0.043700
     72 H37         -9.7060    -2.7340     3.2310 h1         1 J6B       0.033700
     73 H38        -10.9640    -2.2650     2.0870 h1         1 J6B       0.033700
     74 H39         -9.8870    -3.6180     1.7070 h1         1 J6B       0.033700
     75 C16          1.6000     0.8930    -0.7820 c          1 J6B       0.614700
     76 H14         -8.6590    -0.3030    -1.4830 h1         1 J6B       0.057200
@<TRIPOS>BOND
     1     1     2 1   
     2     1     4 1   
     3     1     6 1   
     4     1    39 1   
     5     2     3 1   
     6     2     5 1   
     7     2    40 1   
     8     3    20 1   
     9     3    21 1   
    10     3    41 1   
    11     4    20 1   
    12     5     7 1   
    13     5     9 1   
    14     6     7 1   
    15     6    22 1   
    16     6    42 1   
    17     7    43 1   
    18     7    44 1   
    19     8     9 1   
    20     8    10 1   
    21     8    25 1   
    22     8    45 1   
    23     9    19 2   
    24    10    23 1   
    25    10    46 1   
    26    10    47 1   
    27    11    23 1   
    28    11    48 1   
    29    11    49 1   
    30    11    50 1   
    31    12    13 ar  
    32    12    27 ar  
    33    12    75 1   
    34    13    29 ar  
    35    13    51 1   
    36    14    15 1   
    37    14    28 ar  
    38    14    29 ar  
    39    15    31 1   
    40    15    33 2   
    41    16    31 2   
    42    16    32 1   
    43    16    34 1   
    44    17    18 1   
    45    17    34 1   
    46    17    52 1   
    47    17    76 1   
    48    18    37 1   
    49    18    53 1   
    50    18    54 1   
    51    20    55 1   
    52    20    56 1   
    53    21    57 1   
    54    22    58 1   
    55    22    59 1   
    56    23    24 1   
    57    23    60 1   
    58    24    61 1   
    59    24    62 1   
    60    24    63 1   
    61    25    64 1   
    62    25    75 1   
    63    26    75 2   
    64    27    28 ar  
    65    27    65 1   
    66    28    66 1   
    67    29    30 1   
    68    32    33 1   
    69    33    67 1   
    70    34    35 1   
    71    35    36 1   
    72    35    68 1   
    73    35    69 1   
    74    36    37 1   
    75    36    70 1   
    76    36    71 1   
    77    37    38 1   
    78    38    72 1   
    79    38    73 1   
    80    38    74 1   
@<TRIPOS>SUBSTRUCTURE
     1 J6B         1 TEMP              0 ****  ****    0 ROOT
