@<TRIPOS>MOLECULE
J6C
   52    54     1     0     0
SMALL
abcg2


@<TRIPOS>ATOM
      1 C1          57.6320     1.7480     6.4270 c6         1 J6C      -0.042700
      2 C2          57.9810     0.5870     5.4700 c6         1 J6C       0.012200
      3 C3          58.3720     3.0880     6.1450 c6         1 J6C      -0.035000
      4 C4          57.5540     1.0200     4.0400 c6         1 J6C      -0.068400
      5 C5          57.7020     1.3000     7.8790 c6         1 J6C      -0.067400
      6 C6          58.6560     3.2290     4.6360 c6         1 J6C      -0.066400
      7 C7          57.2070    -0.6710     5.8710 c2         1 J6C      -0.104400
      8 C8          57.5910     2.5370     3.8030 c6         1 J6C      -0.072400
      9 C9          56.6520     0.2340     8.1320 c6         1 J6C      -0.038200
     10 C10         56.6030    -0.8090     7.0550 c2         1 J6C      -0.113400
     11 C11         59.4770     0.2210     5.4830 c3         1 J6C      -0.078100
     12 C12         59.6820     3.2440     6.9220 c3         1 J6C      -0.084600
     13 C13         57.4400     4.2280     6.5730 c3         1 J6C      -0.084600
     14 C14         57.1820    -1.7930     4.8650 c6         1 J6C      -0.002000
     15 C15         55.8040    -2.0230     7.4340 c6         1 J6C      -0.001000
     16 C16         55.6120    -3.0410     6.3530 c2         1 J6C      -0.110400
     17 C17         56.2660    -2.9240     5.2020 c2         1 J6C      -0.215200
     18 C18         54.6540    -4.1660     6.6750 c3         1 J6C      -0.020500
     19 C19         54.8340    -5.4070     5.8110 c3         1 J6C      -0.084600
     20 C20         53.2030    -3.6780     6.5990 c3         1 J6C      -0.084600
     21 H1          56.5680     1.9520     6.2340 hc         1 J6C       0.048700
     22 H2          56.5350     0.6760     3.8440 hc         1 J6C       0.039700
     23 H3          58.1880     0.5160     3.3050 hc         1 J6C       0.039700
     24 H4          58.6950     0.9080     8.1150 hc         1 J6C       0.042200
     25 H5          57.5360     2.1400     8.5580 hc         1 J6C       0.042200
     26 H6          59.6380     2.8160     4.3880 hc         1 J6C       0.039700
     27 H7          58.7110     4.2910     4.3770 hc         1 J6C       0.039700
     28 H9          57.7460     2.7360     2.7410 hc         1 J6C       0.036700
     29 H10         56.6160     2.9700     4.0450 hc         1 J6C       0.036700
     30 H11         55.6620     0.6990     8.2240 hc         1 J6C       0.043200
     31 H12         56.8310    -0.2560     9.0960 hc         1 J6C       0.043200
     32 H14         59.8250    -0.0230     6.4870 hc         1 J6C       0.033367
     33 H15         59.6630    -0.6500     4.8530 hc         1 J6C       0.033367
     34 H16         60.1090     1.0180     5.0970 hc         1 J6C       0.033367
     35 H17         59.5170     3.2760     8.0000 hc         1 J6C       0.031867
     36 H18         60.3920     2.4430     6.7190 hc         1 J6C       0.031867
     37 H19         60.1630     4.1840     6.6420 hc         1 J6C       0.031867
     38 H20         57.1360     4.1300     7.6180 hc         1 J6C       0.031867
     39 H21         57.9320     5.1970     6.4650 hc         1 J6C       0.031867
     40 H22         56.5310     4.2490     5.9680 hc         1 J6C       0.031867
     41 H23         58.1970    -2.1890     4.7240 hc         1 J6C       0.051700
     42 H24         56.9090    -1.4120     3.8750 hc         1 J6C       0.051700
     43 H25         54.8310    -1.6890     7.8170 hc         1 J6C       0.049200
     44 H26         56.2730    -2.5100     8.3020 hc         1 J6C       0.049200
     45 H28         56.1480    -3.6770     4.4300 ha         1 J6C       0.171000
     46 H30         54.8460    -4.4590     7.7150 hc         1 J6C       0.046700
     47 H31         54.1810    -6.2080     6.1610 hc         1 J6C       0.033700
     48 H32         54.5770    -5.2160     4.7670 hc         1 J6C       0.033700
     49 H33         55.8600    -5.7740     5.8410 hc         1 J6C       0.033700
     50 H34         53.0240    -2.8110     7.2360 hc         1 J6C       0.033700
     51 H35         52.9490    -3.4000     5.5740 hc         1 J6C       0.033700
     52 H36         52.5140    -4.4630     6.9150 hc         1 J6C       0.033700
@<TRIPOS>BOND
     1     1     2 1   
     2     1     3 1   
     3     1     5 1   
     4     1    21 1   
     5     2     4 1   
     6     2     7 1   
     7     2    11 1   
     8     3     6 1   
     9     3    12 1   
    10     3    13 1   
    11     4     8 1   
    12     4    22 1   
    13     4    23 1   
    14     5     9 1   
    15     5    24 1   
    16     5    25 1   
    17     6     8 1   
    18     6    26 1   
    19     6    27 1   
    20     7    10 2   
    21     7    14 1   
    22     8    28 1   
    23     8    29 1   
    24     9    10 1   
    25     9    30 1   
    26     9    31 1   
    27    10    15 1   
    28    11    32 1   
    29    11    33 1   
    30    11    34 1   
    31    12    35 1   
    32    12    36 1   
    33    12    37 1   
    34    13    38 1   
    35    13    39 1   
    36    13    40 1   
    37    14    17 1   
    38    14    41 1   
    39    14    42 1   
    40    15    16 1   
    41    15    43 1   
    42    15    44 1   
    43    16    17 2   
    44    16    18 1   
    45    17    45 1   
    46    18    19 1   
    47    18    20 1   
    48    18    46 1   
    49    19    47 1   
    50    19    48 1   
    51    19    49 1   
    52    20    50 1   
    53    20    51 1   
    54    20    52 1   
@<TRIPOS>SUBSTRUCTURE
     1 J6C         1 TEMP              0 ****  ****    0 ROOT
