@<TRIPOS>MOLECULE
J6C
   52    54     1     0     0
SMALL
No Charge or Current Charge


@<TRIPOS>ATOM
      1 C1          57.6930     1.7970     6.4370 c6         1 J6C      -0.042700
      2 C2          57.8790     0.6630     5.3650 c6         1 J6C       0.012200
      3 C3          58.5440     3.1200     6.2000 c6         1 J6C      -0.035000
      4 C4          57.4230     1.2950     3.9770 c6         1 J6C      -0.068400
      5 C5          57.8090     1.2120     7.9180 c6         1 J6C      -0.067400
      6 C6          58.7550     3.3960     4.6680 c6         1 J6C      -0.066400
      7 C7          56.9150    -0.5760     5.7610 c2         1 J6C      -0.104400
      8 C8          57.6040     2.8520     3.7960 c6         1 J6C      -0.072400
      9 C9          56.6680     0.2020     8.1730 c6         1 J6C      -0.038200
     10 C10         56.4070    -0.7610     7.0150 c2         1 J6C      -0.113400
     11 C11         59.3870     0.1570     5.2610 c3         1 J6C      -0.078100
     12 C12         59.9410     3.1070     6.9100 c3         1 J6C      -0.084600
     13 C13         57.7690     4.3260     6.8280 c3         1 J6C      -0.084600
     14 C14         56.6260    -1.6170     4.6440 c6         1 J6C      -0.002000
     15 C15         55.5250    -1.9410     7.4070 c6         1 J6C      -0.001000
     16 C16         55.3170    -2.9800     6.3150 c2         1 J6C      -0.110400
     17 C17         55.8210    -2.8210     5.0840 c2         1 J6C      -0.215200
     18 C18         54.4960    -4.1960     6.7340 c3         1 J6C      -0.020500
     19 C19         55.3340    -5.4920     6.6740 c3         1 J6C      -0.084600
     20 C20         53.1940    -4.3140     5.9100 c3         1 J6C      -0.084600
     21 H1          56.6400     2.1010     6.3400 hc         1 J6C       0.048700
     22 H2          56.3540     1.0960     3.8230 hc         1 J6C       0.039700
     23 H3          57.9330     0.7740     3.1550 hc         1 J6C       0.039700
     24 H4          58.7720     0.6970     8.1200 hc         1 J6C       0.042200
     25 H5          57.7440     1.9830     8.7150 hc         1 J6C       0.042200
     26 H6          59.6990     2.9640     4.3160 hc         1 J6C       0.039700
     27 H7          58.8660     4.4750     4.4890 hc         1 J6C       0.039700
     28 H9          57.7820     3.0880     2.7380 hc         1 J6C       0.036700
     29 H10         56.6710     3.3640     4.0710 hc         1 J6C       0.036700
     30 H11         55.7400     0.7510     8.3870 hc         1 J6C       0.043200
     31 H12         56.9030    -0.3640     9.0850 hc         1 J6C       0.043200
     32 H14         59.7630    -0.1900     6.2290 hc         1 J6C       0.033367
     33 H15         59.4670    -0.6890     4.5700 hc         1 J6C       0.033367
     34 H16         60.0770     0.9140     4.8840 hc         1 J6C       0.033367
     35 H17         59.8480     3.0720     8.0020 hc         1 J6C       0.031867
     36 H18         60.5590     2.2550     6.6130 hc         1 J6C       0.031867
     37 H19         60.5110     4.0130     6.6710 hc         1 J6C       0.031867
     38 H20         57.6090     4.1940     7.9050 hc         1 J6C       0.031867
     39 H21         58.3140     5.2690     6.6960 hc         1 J6C       0.031867
     40 H22         56.7840     4.4530     6.3650 hc         1 J6C       0.031867
     41 H23         57.5770    -1.9730     4.2280 hc         1 J6C       0.051700
     42 H24         56.0920    -1.1400     3.8130 hc         1 J6C       0.051700
     43 H25         54.5470    -1.5640     7.7360 hc         1 J6C       0.049200
     44 H26         55.9720    -2.4410     8.2780 hc         1 J6C       0.049200
     45 H28         55.6590    -3.5810     4.3180 ha         1 J6C       0.171000
     46 H30         54.1860    -4.0760     7.7800 hc         1 J6C       0.046700
     47 H31         54.7550    -6.3450     7.0490 hc         1 J6C       0.033700
     48 H32         55.6440    -5.7150     5.6460 hc         1 J6C       0.033700
     49 H33         56.2350    -5.3950     7.2920 hc         1 J6C       0.033700
     50 H34         52.6050    -3.3930     5.9900 hc         1 J6C       0.033700
     51 H35         53.4110    -4.4920     4.8500 hc         1 J6C       0.033700
     52 H36         52.5790    -5.1440     6.2770 hc         1 J6C       0.033700
@<TRIPOS>BOND
     1     1     2 1   
     2     1     3 1   
     3     1     5 1   
     4     1    21 1   
     5     2     4 1   
     6     2     7 1   
     7     2    11 1   
     8     3     6 1   
     9     3    12 1   
    10     3    13 1   
    11     4     8 1   
    12     4    22 1   
    13     4    23 1   
    14     5     9 1   
    15     5    24 1   
    16     5    25 1   
    17     6     8 1   
    18     6    26 1   
    19     6    27 1   
    20     7    10 2   
    21     7    14 1   
    22     8    28 1   
    23     8    29 1   
    24     9    10 1   
    25     9    30 1   
    26     9    31 1   
    27    10    15 1   
    28    11    32 1   
    29    11    33 1   
    30    11    34 1   
    31    12    35 1   
    32    12    36 1   
    33    12    37 1   
    34    13    38 1   
    35    13    39 1   
    36    13    40 1   
    37    14    17 1   
    38    14    41 1   
    39    14    42 1   
    40    15    16 1   
    41    15    43 1   
    42    15    44 1   
    43    16    17 2   
    44    16    18 1   
    45    17    45 1   
    46    18    19 1   
    47    18    20 1   
    48    18    46 1   
    49    19    47 1   
    50    19    48 1   
    51    19    49 1   
    52    20    50 1   
    53    20    51 1   
    54    20    52 1   
@<TRIPOS>SUBSTRUCTURE
     1 J6C         1 TEMP              0 ****  ****    0 ROOT
