@<TRIPOS>MOLECULE
J6D
   75    80     1     0     0
SMALL
No Charge or Current Charge


@<TRIPOS>ATOM
      1 C13         -5.7740     1.1110    -0.6520 ca         1 J6D      -0.079800
      2 C18         -6.1120     1.6290    -1.9170 ca         1 J6D      -0.050500
      3 C17         -7.3860     2.1850    -2.1330 ca         1 J6D      -0.160000
      4 C16         -8.3220     2.2180    -1.0880 ca         1 J6D       0.192000
      5 C15         -7.9940     1.6950     0.1730 ca         1 J6D      -0.160000
      6 C20          1.1520    -1.0430     1.1020 cp         1 J6D      -0.043000
      7 C21          1.6400    -2.0200     1.9960 ca         1 J6D      -0.065000
      8 C22          2.9650    -1.9790     2.4520 ca         1 J6D      -0.116000
      9 C23          3.8300    -0.9580     2.0280 ca         1 J6D      -0.083000
     10 C24          3.3730     0.0460     1.1400 ca         1 J6D      -0.150600
     11 C34          8.6330     0.5180    -1.8720 ca         1 J6D       0.116900
     12 O1          -4.1320    -0.7190    -0.9270 os         1 J6D      -0.164200
     13 C2          -4.4520     0.5380    -0.4280 cc         1 J6D       0.129900
     14 C3          -3.4080     1.0940     0.3000 cd         1 J6D      -0.187400
     15 C4          -2.3600     0.1070     0.2760 ca         1 J6D      -0.072800
     16 C5          -2.8540    -0.9370    -0.4610 ca         1 J6D       0.065100
     17 C6          -1.0650     0.0830     0.8080 ca         1 J6D      -0.027000
     18 C7          -0.2550    -1.0650     0.5940 cp         1 J6D      -0.021000
     19 C8          -0.7880    -2.1700    -0.1570 ca         1 J6D       0.297000
     20 C9          -2.0890    -2.0790    -0.7040 ca         1 J6D      -0.127000
     21 C10         -3.3390     2.4280     0.9680 c          1 J6D       0.632300
     22 O11         -2.3780     2.8050     1.6230 o          1 J6D      -0.591100
     23 N12         -4.4380     3.2350     0.7910 ns         1 J6D      -0.503900
     24 C14         -6.7220     1.1370     0.3910 ca         1 J6D      -0.050500
     25 F19         -9.5440     2.7520    -1.2960 f          1 J6D      -0.171000
     26 C25          2.0320    -0.0120     0.6940 ca         1 J6D      -0.054000
     27 C26          4.2690     1.1680     0.6520 c          1 J6D       0.620700
     28 N27          5.5740     1.1560     1.1080 ns         1 J6D      -0.455900
     29 O28          3.8610     2.0400    -0.1050 o          1 J6D      -0.588100
     30 C29          6.5980     2.1070     0.7380 cx         1 J6D      -0.018900
     31 C30          7.1970     1.8020    -0.6150 ca         1 J6D       0.161300
     32 C31          7.4780     2.6090     1.8630 cx         1 J6D      -0.093900
     33 C32          6.4530     3.5260     1.2480 cx         1 J6D      -0.093900
     34 N33          8.0990     0.7950    -0.6660 nb         1 J6D      -0.177000
     35 C35          8.2670     1.2430    -3.0190 ca         1 J6D      -0.225000
     36 C36          7.3220     2.2700    -2.8640 ca         1 J6D       0.116900
     37 N37          6.7830     2.5540    -1.6610 nb         1 J6D      -0.177000
     38 N38         -0.0240    -3.3210    -0.4400 nh         1 J6D      -0.781300
     39 S39         -0.4260    -4.8020     0.3630 s6         1 J6D       1.211100
     40 O40          0.7070    -5.7150     0.1840 o          1 J6D      -0.527000
     41 O41         -0.8730    -4.4460     1.7130 o          1 J6D      -0.527000
     42 C42         -1.8300    -5.4560    -0.5220 c3         1 J6D      -0.378100
     43 C43         -4.5820     4.5770     1.3560 c3         1 J6D       0.095300
     44 C44          0.6500    -3.4330    -1.7470 c3         1 J6D       0.223800
     45 C45          1.6840    -2.3260    -2.0100 c3         1 J6D      -0.095100
     46 H52         -5.3870     1.6030    -2.7280 ha         1 J6D       0.132500
     47 H51         -7.6480     2.5890    -3.1070 ha         1 J6D       0.139000
     48 H50         -8.7260     1.7200     0.9760 ha         1 J6D       0.139000
     49 H53          0.9830    -2.8090     2.3480 ha         1 J6D       0.131000
     50 H54          3.3240    -2.7420     3.1410 ha         1 J6D       0.122000
     51 H55          4.8500    -0.9620     2.4040 ha         1 J6D       0.113000
     52 H46         -0.6760     0.9270     1.3700 ha         1 J6D       0.155000
     53 H47         -2.4910    -2.8700    -1.3270 ha         1 J6D       0.127000
     54 H48         -5.1900     2.8640     0.2250 hn         1 J6D       0.320500
     55 H49         -6.4700     0.7280     1.3680 ha         1 J6D       0.132500
     56 H56          1.6620     0.7450     0.0060 ha         1 J6D       0.134000
     57 H57          5.8200     0.3900     1.7210 hn         1 J6D       0.321500
     58 H59          7.2880     2.2410     2.8690 hc         1 J6D       0.086200
     59 H58          8.5240     2.8030     1.6430 hc         1 J6D       0.086200
     60 H61          6.8150     4.3360     0.6200 hc         1 J6D       0.086200
     61 H60          5.5720     3.7700     1.8370 hc         1 J6D       0.086200
     62 H63          8.6990     1.0170    -3.9900 ha         1 J6D       0.135000
     63 H64          6.9920     2.8730    -3.7090 h4         1 J6D       0.023100
     64 H65         -2.0040    -6.4690    -0.1460 h1         1 J6D       0.100700
     65 H67         -2.6910    -4.8150    -0.3120 h1         1 J6D       0.100700
     66 H66         -1.5790    -5.4680    -1.5870 h1         1 J6D       0.100700
     67 H69         -5.5570     4.9930     1.0680 h1         1 J6D       0.042033
     68 H70         -4.5200     4.5270     2.4510 h1         1 J6D       0.042033
     69 H68         -3.7850     5.2270     0.9730 h1         1 J6D       0.042033
     70 H72          1.1690    -4.3950    -1.8410 h1         1 J6D       0.043700
     71 H71         -0.1040    -3.4050    -2.5460 h1         1 J6D       0.043700
     72 H74          2.1640    -2.4790    -2.9830 hc         1 J6D       0.048700
     73 H73          1.2090    -1.3380    -2.0160 hc         1 J6D       0.048700
     74 H75          2.4620    -2.3370    -1.2380 hc         1 J6D       0.048700
     75 H62          9.3600    -0.2920    -1.9180 h4         1 J6D       0.023100
@<TRIPOS>BOND
     1     1     2 ar  
     2     1    13 1   
     3     1    24 ar  
     4     2     3 ar  
     5     2    46 1   
     6     3     4 ar  
     7     3    47 1   
     8     4     5 ar  
     9     4    25 1   
    10     5    24 ar  
    11     5    48 1   
    12     6     7 ar  
    13     6    18 1   
    14     6    26 ar  
    15     7     8 ar  
    16     7    49 1   
    17     8     9 ar  
    18     8    50 1   
    19     9    10 ar  
    20     9    51 1   
    21    10    26 ar  
    22    10    27 1   
    23    11    34 ar  
    24    11    35 ar  
    25    11    75 1   
    26    12    13 1   
    27    12    16 1   
    28    13    14 2   
    29    14    15 1   
    30    14    21 1   
    31    15    16 ar  
    32    15    17 ar  
    33    16    20 ar  
    34    17    18 ar  
    35    17    52 1   
    36    18    19 ar  
    37    19    20 ar  
    38    19    38 1   
    39    20    53 1   
    40    21    22 2   
    41    21    23 1   
    42    23    43 1   
    43    23    54 1   
    44    24    55 1   
    45    26    56 1   
    46    27    28 1   
    47    27    29 2   
    48    28    30 1   
    49    28    57 1   
    50    30    31 1   
    51    30    32 1   
    52    30    33 1   
    53    31    34 ar  
    54    31    37 ar  
    55    32    33 1   
    56    32    58 1   
    57    32    59 1   
    58    33    60 1   
    59    33    61 1   
    60    35    36 ar  
    61    35    62 1   
    62    36    37 ar  
    63    36    63 1   
    64    38    39 1   
    65    38    44 1   
    66    39    40 2   
    67    39    41 2   
    68    39    42 1   
    69    42    64 1   
    70    42    65 1   
    71    42    66 1   
    72    43    67 1   
    73    43    68 1   
    74    43    69 1   
    75    44    45 1   
    76    44    70 1   
    77    44    71 1   
    78    45    72 1   
    79    45    73 1   
    80    45    74 1   
@<TRIPOS>SUBSTRUCTURE
     1 J6D         1 TEMP              0 ****  ****    0 ROOT
