@<TRIPOS>MOLECULE
J6D
   75    80     1     0     0
SMALL
abcg2


@<TRIPOS>ATOM
      1 C13         -5.6240     1.0590    -0.7930 ca         1 J6D      -0.079800
      2 C18         -6.0980     0.7980    -2.0810 ca         1 J6D      -0.050500
      3 C17         -7.3530     1.2320    -2.4730 ca         1 J6D      -0.160000
      4 C16         -8.1300     1.9230    -1.5620 ca         1 J6D       0.192000
      5 C15         -7.6970     2.1880    -0.2760 ca         1 J6D      -0.160000
      6 C20          1.1270    -1.1390     1.3560 cp         1 J6D      -0.043000
      7 C21          1.5580    -2.1470     2.2160 ca         1 J6D      -0.065000
      8 C22          2.8460    -2.1280     2.7300 ca         1 J6D      -0.116000
      9 C23          3.7280    -1.1150     2.3840 ca         1 J6D      -0.083000
     10 C24          3.3110    -0.0980     1.5300 ca         1 J6D      -0.150600
     11 C34          5.9900     1.3230    -2.8030 ca         1 J6D       0.116900
     12 O1          -3.9470    -0.6270    -0.8660 os         1 J6D      -0.164200
     13 C2          -4.3000     0.5940    -0.3950 cc         1 J6D       0.129900
     14 C3          -3.3140     1.1220     0.3840 cd         1 J6D      -0.187400
     15 C4          -2.2690     0.1330     0.4210 ca         1 J6D      -0.072800
     16 C5          -2.7190    -0.9090    -0.3830 ca         1 J6D       0.065100
     17 C6          -1.0090     0.0380     1.0030 ca         1 J6D      -0.027000
     18 C7          -0.2390    -1.0990     0.7850 cp         1 J6D      -0.021000
     19 C8          -0.7400    -2.1430    -0.0220 ca         1 J6D       0.297000
     20 C9          -1.9850    -2.0490    -0.6300 ca         1 J6D      -0.127000
     21 C10         -3.2340     2.4290     1.0750 c          1 J6D       0.632300
     22 O11         -2.6760     2.5210     2.1620 o          1 J6D      -0.591100
     23 N12         -3.7700     3.4770     0.4400 ns         1 J6D      -0.503900
     24 C14         -6.4410     1.7480     0.1050 ca         1 J6D      -0.050500
     25 F19         -9.3440     2.3430    -1.9360 f          1 J6D      -0.171000
     26 C25          2.0100    -0.1120     1.0370 ca         1 J6D      -0.054000
     27 C26          4.1940     1.0400     1.1330 c          1 J6D       0.620700
     28 N27          5.5220     0.8060     1.1890 ns         1 J6D      -0.455900
     29 O28          3.7300     2.1160     0.7920 o          1 J6D      -0.588100
     30 C29          6.4530     1.7900     0.7590 cx         1 J6D      -0.018900
     31 C30          6.5540     1.9860    -0.7150 ca         1 J6D       0.161300
     32 C31          7.7160     1.9180     1.5750 cx         1 J6D      -0.093900
     33 C32          6.6730     2.9720     1.6630 cx         1 J6D      -0.093900
     34 N33          5.8840     1.1450    -1.4920 nb         1 J6D      -0.177000
     35 C35          6.7600     2.3320    -3.3540 ca         1 J6D      -0.225000
     36 C36          7.4240     3.1480    -2.4530 ca         1 J6D       0.116900
     37 N37          7.3250     2.9810    -1.1430 nb         1 J6D      -0.177000
     38 N38          0.0740    -3.2820    -0.2780 nh         1 J6D      -0.781300
     39 S39         -0.2920    -4.6960     0.5040 s6         1 J6D       1.211100
     40 O40          0.9340    -5.4680     0.6200 o          1 J6D      -0.527000
     41 O41         -1.0200    -4.3320     1.7110 o          1 J6D      -0.527000
     42 C42         -1.3970    -5.6030    -0.5560 c3         1 J6D      -0.378100
     43 C43         -3.7920     4.8000     1.0180 c3         1 J6D       0.095300
     44 C44          0.7470    -3.3650    -1.5830 c3         1 J6D       0.223800
     45 C45          1.8240    -2.3090    -1.7390 c3         1 J6D      -0.095100
     46 H52         -5.4850     0.2650    -2.7940 ha         1 J6D       0.132500
     47 H51         -7.7180     1.0360    -3.4720 ha         1 J6D       0.139000
     48 H50         -8.3330     2.7170     0.4210 ha         1 J6D       0.139000
     49 H53          0.8790    -2.9310     2.5180 ha         1 J6D       0.131000
     50 H54          3.1620    -2.9070     3.4110 ha         1 J6D       0.122000
     51 H55          4.7220    -1.1140     2.8120 ha         1 J6D       0.113000
     52 H46         -0.6280     0.8340     1.6280 ha         1 J6D       0.155000
     53 H47         -2.3600    -2.8290    -1.2800 ha         1 J6D       0.127000
     54 H48         -4.1240     3.3620    -0.4950 hn         1 J6D       0.320500
     55 H49         -6.1120     1.9260     1.1190 ha         1 J6D       0.132500
     56 H56          1.6890     0.6780     0.3700 ha         1 J6D       0.134000
     57 H57          5.8490    -0.1450     1.2460 hn         1 J6D       0.321500
     58 H59          7.8270     1.2290     2.4030 hc         1 J6D       0.086200
     59 H58          8.6270     2.1350     1.0340 hc         1 J6D       0.086200
     60 H61          6.8620     3.9260     1.1900 hc         1 J6D       0.086200
     61 H60          6.0590     3.0120     2.5530 hc         1 J6D       0.086200
     62 H63          6.8410     2.4730    -4.4210 ha         1 J6D       0.135000
     63 H64          8.0540     3.9620    -2.7960 h4         1 J6D       0.023100
     64 H65         -1.6270    -6.5450    -0.0600 h1         1 J6D       0.100700
     65 H67         -2.3120    -5.0360    -0.7070 h1         1 J6D       0.100700
     66 H66         -0.9150    -5.8040    -1.5100 h1         1 J6D       0.100700
     67 H69         -4.3390     5.4560     0.3470 h1         1 J6D       0.042033
     68 H70         -4.2940     4.8010     1.9850 h1         1 J6D       0.042033
     69 H68         -2.7870     5.2020     1.1520 h1         1 J6D       0.042033
     70 H72          1.2030    -4.3510    -1.6720 h1         1 J6D       0.043700
     71 H71          0.0090    -3.2790    -2.3860 h1         1 J6D       0.043700
     72 H74          2.3000    -2.4250    -2.7130 hc         1 J6D       0.048700
     73 H73          1.4140    -1.3000    -1.6910 hc         1 J6D       0.048700
     74 H75          2.5850    -2.4090    -0.9670 hc         1 J6D       0.048700
     75 H62          5.4390     0.6350    -3.4340 h4         1 J6D       0.023100
@<TRIPOS>BOND
     1     1     2 ar  
     2     1    13 1   
     3     1    24 ar  
     4     2     3 ar  
     5     2    46 1   
     6     3     4 ar  
     7     3    47 1   
     8     4     5 ar  
     9     4    25 1   
    10     5    24 ar  
    11     5    48 1   
    12     6     7 ar  
    13     6    18 1   
    14     6    26 ar  
    15     7     8 ar  
    16     7    49 1   
    17     8     9 ar  
    18     8    50 1   
    19     9    10 ar  
    20     9    51 1   
    21    10    26 ar  
    22    10    27 1   
    23    11    34 ar  
    24    11    35 ar  
    25    11    75 1   
    26    12    13 1   
    27    12    16 1   
    28    13    14 2   
    29    14    15 1   
    30    14    21 1   
    31    15    16 ar  
    32    15    17 ar  
    33    16    20 ar  
    34    17    18 ar  
    35    17    52 1   
    36    18    19 ar  
    37    19    20 ar  
    38    19    38 1   
    39    20    53 1   
    40    21    22 2   
    41    21    23 1   
    42    23    43 1   
    43    23    54 1   
    44    24    55 1   
    45    26    56 1   
    46    27    28 1   
    47    27    29 2   
    48    28    30 1   
    49    28    57 1   
    50    30    31 1   
    51    30    32 1   
    52    30    33 1   
    53    31    34 ar  
    54    31    37 ar  
    55    32    33 1   
    56    32    58 1   
    57    32    59 1   
    58    33    60 1   
    59    33    61 1   
    60    35    36 ar  
    61    35    62 1   
    62    36    37 ar  
    63    36    63 1   
    64    38    39 1   
    65    38    44 1   
    66    39    40 2   
    67    39    41 2   
    68    39    42 1   
    69    42    64 1   
    70    42    65 1   
    71    42    66 1   
    72    43    67 1   
    73    43    68 1   
    74    43    69 1   
    75    44    45 1   
    76    44    70 1   
    77    44    71 1   
    78    45    72 1   
    79    45    73 1   
    80    45    74 1   
@<TRIPOS>SUBSTRUCTURE
     1 J6D         1 TEMP              0 ****  ****    0 ROOT
