@<TRIPOS>MOLECULE
J6E
   53    57     1     0     0
SMALL
abcg2


@<TRIPOS>ATOM
      1 N1           5.5220    -1.6810    -0.1510 n          1 J6E      -0.437800
      2 N3          -3.5250     2.1090    -1.3810 nc         1 J6E      -0.252600
      3 C4           4.3530    -1.0190    -0.2540 c          1 J6E       0.666100
      4 C5           5.6910    -2.9960    -0.7580 c5         1 J6E       0.108500
      5 C6           7.1950    -3.2270    -0.6710 c5         1 J6E      -0.094400
      6 C7           7.5910    -2.4770     0.5970 c5         1 J6E      -0.094400
      7 C8           6.7170    -1.2280     0.5520 c5         1 J6E       0.108500
      8 C10          0.9340     1.7340     0.2580 ca         1 J6E      -0.169500
      9 C13         -2.1600    -0.3120     0.7400 cc         1 J6E      -0.058000
     10 C15         -4.5970     1.2890    -1.2180 cc         1 J6E      -0.045400
     11 C17         -4.8030    -2.1100    -0.7010 c6         1 J6E       0.146300
     12 C20         -6.4470    -0.6270     0.2480 c6         1 J6E       0.146300
     13 O            3.3690    -1.5050    -0.8000 o          1 J6E      -0.629100
     14 N            4.3500     0.2400     0.3060 ns         1 J6E      -0.162000
     15 C3           3.2930     1.1500     0.2950 ca         1 J6E      -0.026000
     16 C2           3.6070     2.5080     0.3800 ca         1 J6E      -0.132000
     17 C1           2.6100     3.4660     0.4160 ca         1 J6E      -0.135000
     18 C9           1.9520     0.7790     0.2510 ca         1 J6E      -0.087000
     19 C            1.2890     3.0740     0.3440 ca         1 J6E       0.191000
     20 F            0.3410     4.0200     0.3970 f          1 J6E      -0.156000
     21 C11         -0.4710     1.2910     0.1690 cc         1 J6E       0.441500
     22 N4          -1.2920     1.9820    -0.5780 nd         1 J6E      -0.606000
     23 C16         -2.5530     1.5560    -0.6950 cd         1 J6E       0.391500
     24 N2          -2.9890     0.3940    -0.0670 na         1 J6E      -0.072400
     25 C12         -0.8840     0.1220     0.8750 cd         1 J6E      -0.201000
     26 C14         -4.3060     0.2150    -0.4120 cd         1 J6E      -0.003100
     27 N5          -5.0240    -0.8740     0.0540 nh         1 J6E      -0.611400
     28 C19         -7.0750    -1.8300     0.9260 c6         1 J6E       0.151600
     29 O1          -6.8610    -3.0140     0.1890 os         1 J6E      -0.446000
     30 C18         -5.4840    -3.2600     0.0130 c6         1 J6E       0.151600
     31 H1           5.1400    -3.7580    -0.1980 h1         1 J6E       0.050200
     32 H2           5.3250    -3.0100    -1.7850 h1         1 J6E       0.050200
     33 H3           7.4460    -4.2860    -0.6370 hc         1 J6E       0.056700
     34 H4           7.6940    -2.7920    -1.5400 hc         1 J6E       0.056700
     35 H5           7.3460    -3.0720     1.4790 hc         1 J6E       0.056700
     36 H6           8.6510    -2.2320     0.6430 hc         1 J6E       0.056700
     37 H7           7.2150    -0.4210     0.0040 h1         1 J6E       0.050200
     38 H8           6.4790    -0.8620     1.5530 h1         1 J6E       0.050200
     39 H10         -5.5470     1.5050    -1.6840 h4         1 J6E       0.229000
     40 H11         -5.1880    -2.0160    -1.7260 h1         1 J6E       0.050700
     41 H12         -3.7340    -2.3180    -0.7720 h1         1 J6E       0.050700
     42 H13         -6.5770     0.2510     0.8840 h1         1 J6E       0.050700
     43 H14         -6.9600    -0.4300    -0.7040 h1         1 J6E       0.050700
     44 H15          5.2400     0.6410     0.5570 hn         1 J6E       0.148000
     45 H16          4.6430     2.8240     0.4220 ha         1 J6E       0.113000
     46 H17          2.8600     4.5150     0.4960 ha         1 J6E       0.135000
     47 H18          1.6810    -0.2630     0.1890 ha         1 J6E       0.149000
     48 H19         -0.2060    -0.4060     1.5280 ha         1 J6E       0.143000
     49 H20         -6.6670    -1.9290     1.9410 h1         1 J6E       0.053450
     50 H21         -8.1530    -1.6860     1.0090 h1         1 J6E       0.053450
     51 H22         -5.3860    -4.1720    -0.5770 h1         1 J6E       0.053450
     52 H23         -4.9930    -3.4270     0.9820 h1         1 J6E       0.053450
     53 H9          -2.5670    -1.1750     1.2470 h4         1 J6E       0.156000
@<TRIPOS>BOND
     1     1     3 1   
     2     1     4 1   
     3     1     7 1   
     4     2    10 1   
     5     2    23 2   
     6     3    13 2   
     7     3    14 1   
     8     4     5 1   
     9     4    31 1   
    10     4    32 1   
    11     5     6 1   
    12     5    33 1   
    13     5    34 1   
    14     6     7 1   
    15     6    35 1   
    16     6    36 1   
    17     7    37 1   
    18     7    38 1   
    19     8    18 ar  
    20     8    19 ar  
    21     8    21 1   
    22     9    24 1   
    23     9    25 2   
    24     9    53 1   
    25    10    26 2   
    26    10    39 1   
    27    11    27 1   
    28    11    30 1   
    29    11    40 1   
    30    11    41 1   
    31    12    27 1   
    32    12    28 1   
    33    12    42 1   
    34    12    43 1   
    35    14    15 1   
    36    14    44 1   
    37    15    16 ar  
    38    15    18 ar  
    39    16    17 ar  
    40    16    45 1   
    41    17    19 ar  
    42    17    46 1   
    43    18    47 1   
    44    19    20 1   
    45    21    22 2   
    46    21    25 1   
    47    22    23 1   
    48    23    24 1   
    49    24    26 1   
    50    25    48 1   
    51    26    27 1   
    52    28    29 1   
    53    28    49 1   
    54    28    50 1   
    55    29    30 1   
    56    30    51 1   
    57    30    52 1   
@<TRIPOS>SUBSTRUCTURE
     1 J6E         1 TEMP              0 ****  ****    0 ROOT
