@<TRIPOS>MOLECULE
J6E
   53    57     1     0     0
SMALL
No Charge or Current Charge


@<TRIPOS>ATOM
      1 N1           5.6630    -1.7830    -0.1960 n          1 J6E      -0.437800
      2 N3          -3.3840     2.0290    -1.6990 nc         1 J6E      -0.252600
      3 C4           4.3660    -1.2440    -0.0980 c          1 J6E       0.666100
      4 C5           5.9120    -3.1830    -0.5980 c5         1 J6E       0.108500
      5 C6           7.4280    -3.1500    -0.9180 c5         1 J6E      -0.094400
      6 C7           7.9550    -2.1660     0.1550 c5         1 J6E      -0.094400
      7 C8           6.9060    -1.0260     0.0810 c5         1 J6E       0.108500
      8 C10          0.8500     1.6150     0.4040 ca         1 J6E      -0.169500
      9 C13         -2.2890    -0.3310     0.7240 cc         1 J6E      -0.058000
     10 C15         -4.5180     1.2670    -1.5350 cc         1 J6E      -0.045400
     11 C17         -4.8120    -2.2190    -0.4110 c6         1 J6E       0.146300
     12 C20         -6.6370    -0.5300    -0.2240 c6         1 J6E       0.146300
     13 O            3.3810    -1.9340    -0.3250 o          1 J6E      -0.629100
     14 N            4.3120     0.0950     0.2700 ns         1 J6E      -0.162000
     15 C3           3.2290     0.9970     0.4630 ca         1 J6E      -0.026000
     16 C2           3.5370     2.2840     0.9410 ca         1 J6E      -0.132000
     17 C1           2.5200     3.2290     1.1500 ca         1 J6E      -0.135000
     18 C9           1.8800     0.6710     0.1910 ca         1 J6E      -0.087000
     19 C            1.1840     2.8980     0.8810 ca         1 J6E       0.191000
     20 F            0.2220     3.8200     1.1150 f          1 J6E      -0.156000
     21 C11         -0.5390     1.2680     0.1000 cc         1 J6E       0.441500
     22 N4          -1.2070     1.9940    -0.7970 nd         1 J6E      -0.606000
     23 C16         -2.4790     1.4730    -0.9130 cd         1 J6E       0.391500
     24 N2          -2.9850     0.3790    -0.2470 na         1 J6E      -0.072400
     25 C12         -0.9990     0.1800     0.8440 cd         1 J6E      -0.201000
     26 C14         -4.2930     0.2280    -0.6600 cd         1 J6E      -0.003100
     27 N5          -5.1620    -0.7750    -0.2130 nh         1 J6E      -0.611400
     28 C19         -7.3870    -1.5100     0.7250 c6         1 J6E       0.151600
     29 O1          -7.0380    -2.8820     0.4220 os         1 J6E      -0.446000
     30 C18         -5.6190    -3.1390     0.5490 c6         1 J6E       0.151600
     31 H1           5.6890    -3.8680     0.2320 h1         1 J6E       0.050200
     32 H2           5.3150    -3.4830    -1.4700 h1         1 J6E       0.050200
     33 H3           7.8920    -4.1410    -0.8540 hc         1 J6E       0.056700
     34 H4           7.6090    -2.7670    -1.9300 hc         1 J6E       0.056700
     35 H5           7.9620    -2.6300     1.1480 hc         1 J6E       0.056700
     36 H6           8.9720    -1.8130    -0.0510 hc         1 J6E       0.056700
     37 H7           7.1250    -0.3300    -0.7400 h1         1 J6E       0.050200
     38 H8           6.8580    -0.4600     1.0210 h1         1 J6E       0.050200
     39 H10         -5.4290     1.5090    -2.0720 h4         1 J6E       0.229000
     40 H11         -5.0340    -2.5110    -1.4480 h1         1 J6E       0.050700
     41 H12         -3.7390    -2.3940    -0.2590 h1         1 J6E       0.050700
     42 H13         -6.8530     0.5010     0.0910 h1         1 J6E       0.050700
     43 H14         -7.0290    -0.6480    -1.2440 h1         1 J6E       0.050700
     44 H15          5.2190     0.5120     0.4300 hn         1 J6E       0.148000
     45 H16          4.5700     2.5540     1.1540 ha         1 J6E       0.113000
     46 H17          2.7640     4.2210     1.5250 ha         1 J6E       0.135000
     47 H18          1.6120    -0.3060    -0.1980 ha         1 J6E       0.149000
     48 H19         -0.3330    -0.2840     1.5630 ha         1 J6E       0.143000
     49 H20         -7.1240    -1.2930     1.7700 h1         1 J6E       0.053450
     50 H21         -8.4730    -1.3810     0.6130 h1         1 J6E       0.053450
     51 H22         -5.4210    -4.1930     0.3110 h1         1 J6E       0.053450
     52 H23         -5.3090    -2.9590     1.5890 h1         1 J6E       0.053450
     53 H9          -2.7520    -1.1420     1.2700 h4         1 J6E       0.156000
@<TRIPOS>BOND
     1     1     3 1   
     2     1     4 1   
     3     1     7 1   
     4     2    10 1   
     5     2    23 2   
     6     3    13 2   
     7     3    14 1   
     8     4     5 1   
     9     4    31 1   
    10     4    32 1   
    11     5     6 1   
    12     5    33 1   
    13     5    34 1   
    14     6     7 1   
    15     6    35 1   
    16     6    36 1   
    17     7    37 1   
    18     7    38 1   
    19     8    18 ar  
    20     8    19 ar  
    21     8    21 1   
    22     9    24 1   
    23     9    25 2   
    24     9    53 1   
    25    10    26 2   
    26    10    39 1   
    27    11    27 1   
    28    11    30 1   
    29    11    40 1   
    30    11    41 1   
    31    12    27 1   
    32    12    28 1   
    33    12    42 1   
    34    12    43 1   
    35    14    15 1   
    36    14    44 1   
    37    15    16 ar  
    38    15    18 ar  
    39    16    17 ar  
    40    16    45 1   
    41    17    19 ar  
    42    17    46 1   
    43    18    47 1   
    44    19    20 1   
    45    21    22 2   
    46    21    25 1   
    47    22    23 1   
    48    23    24 1   
    49    24    26 1   
    50    25    48 1   
    51    26    27 1   
    52    28    29 1   
    53    28    49 1   
    54    28    50 1   
    55    29    30 1   
    56    30    51 1   
    57    30    52 1   
@<TRIPOS>SUBSTRUCTURE
     1 J6E         1 TEMP              0 ****  ****    0 ROOT
