@<TRIPOS>MOLECULE
J6F
   37    38     1     0     0
SMALL
abcg2


@<TRIPOS>ATOM
      1 C4           4.7470    26.6490    32.0020 cc         1 J6F       0.153200
      2 C5           4.8370    28.0060    32.0590 cd         1 J6F      -0.237600
      3 C6           5.7500    28.6360    32.9560 c          1 J6F       0.634200
      4 C8           3.2810    27.4910    30.5410 cs         1 J6F       0.386400
      5 N1           6.4610    27.6820    33.6820 ns         1 J6F      -0.474500
      6 N3           5.4800    25.7850    32.7430 n          1 J6F      -0.301000
      7 CAA          0.1660    34.6390    33.3980 c3         1 J6F      -0.088100
      8 CAF          1.1470    34.0440    32.3980 c3         1 J6F      -0.074400
      9 CAG          1.4250    32.5680    32.6480 c3         1 J6F      -0.074400
     10 CAH          2.4030    31.9640    31.6480 c3         1 J6F      -0.071400
     11 CAI          2.6800    30.4900    31.9150 c3         1 J6F      -0.094400
     12 N7           3.9300    28.5090    31.1370 n          1 J6F      -0.155000
     13 O6           5.9360    29.8250    33.1240 o          1 J6F      -0.510000
     14 C2           6.3950    26.3070    33.6410 c          1 J6F       0.634000
     15 O2           7.0930    25.6110    34.3440 o          1 J6F      -0.533000
     16 CAB          5.3040    24.3490    32.5930 c3         1 J6F       0.083300
     17 N9           3.8060    26.3430    31.0800 ns         1 J6F      -0.429600
     18 S8           2.0810    27.5510    29.3850 s          1 J6F      -0.600400
     19 H1           7.1330    28.0480    34.3460 hn         1 J6F       0.352500
     20 H2          -0.0150    35.6970    33.2010 hc         1 J6F       0.032033
     21 H3          -0.7970    34.1270    33.3590 hc         1 J6F       0.032033
     22 H4           0.5420    34.5540    34.4190 hc         1 J6F       0.032033
     23 H5           2.0880    34.6020    32.4320 hc         1 J6F       0.037700
     24 H6           0.7570    34.1720    31.3830 hc         1 J6F       0.037700
     25 H7           0.4830    32.0100    32.6160 hc         1 J6F       0.039700
     26 H8           1.8190    32.4400    33.6630 hc         1 J6F       0.039700
     27 H9           3.3440    32.5240    31.6760 hc         1 J6F       0.043200
     28 H10          2.0060    32.0830    30.6340 hc         1 J6F       0.043200
     29 H11          1.7470    29.9220    31.8770 hc         1 J6F       0.055700
     30 H12          3.0860    30.3690    32.9230 hc         1 J6F       0.055700
     31 H13          4.6010    30.4520    30.9140 h1         1 J6F       0.085200
     32 H14          3.2460    29.9880    29.8920 h1         1 J6F       0.085200
     33 H15          5.9800    23.8380    33.2680 h1         1 J6F       0.064033
     34 H16          4.2820    24.0660    32.8400 h1         1 J6F       0.064033
     35 H17          5.5320    24.0460    31.5720 h1         1 J6F       0.064033
     36 H18          3.4970    25.4220    30.8030 hn         1 J6F       0.489000
     37 CAJ          3.6550    29.9140    30.8990 c3         1 J6F       0.103000
@<TRIPOS>BOND
     1     1     2 2   
     2     1     6 1   
     3     1    17 1   
     4     2     3 1   
     5     2    12 1   
     6     3     5 1   
     7     3    13 2   
     8     4    12 1   
     9     4    17 1   
    10     4    18 2   
    11     5    14 1   
    12     5    19 1   
    13     6    14 1   
    14     6    16 1   
    15     7     8 1   
    16     7    20 1   
    17     7    21 1   
    18     7    22 1   
    19     8     9 1   
    20     8    23 1   
    21     8    24 1   
    22     9    10 1   
    23     9    25 1   
    24     9    26 1   
    25    10    11 1   
    26    10    27 1   
    27    10    28 1   
    28    11    29 1   
    29    11    30 1   
    30    11    37 1   
    31    12    37 1   
    32    14    15 2   
    33    16    33 1   
    34    16    34 1   
    35    16    35 1   
    36    17    36 1   
    37    31    37 1   
    38    32    37 1   
@<TRIPOS>SUBSTRUCTURE
     1 J6F         1 TEMP              0 ****  ****    0 ROOT
