@<TRIPOS>MOLECULE
J6F
   37    38     1     0     0
SMALL
No Charge or Current Charge


@<TRIPOS>ATOM
      1 C4           4.7350    26.5740    31.9490 cc         1 J6F       0.153200
      2 C5           4.7790    27.9270    32.0300 cd         1 J6F      -0.237600
      3 C6           5.6780    28.5750    33.0120 c          1 J6F       0.634200
      4 C8           3.2830    27.4120    30.4020 cs         1 J6F       0.386400
      5 N1           6.3830    27.6830    33.7650 ns         1 J6F      -0.474500
      6 N3           5.4990    25.7480    32.7530 n          1 J6F      -0.301000
      7 CAA          0.1690    34.7270    33.4430 c3         1 J6F      -0.088100
      8 CAF          1.1570    34.1200    32.4290 c3         1 J6F      -0.074400
      9 CAG          1.4080    32.6130    32.6560 c3         1 J6F      -0.074400
     10 CAH          2.3990    32.0050    31.6390 c3         1 J6F      -0.071400
     11 CAI          2.6490    30.4990    31.8680 c3         1 J6F      -0.094400
     12 N7           3.8880    28.4570    31.0850 n          1 J6F      -0.155000
     13 O6           5.8010    29.7790    33.1610 o          1 J6F      -0.510000
     14 C2           6.3580    26.3200    33.7150 c          1 J6F       0.634000
     15 O2           7.0510    25.6580    34.4700 o          1 J6F      -0.533000
     16 CAB          5.4280    24.2730    32.6450 c3         1 J6F       0.083300
     17 N9           3.8300    26.3070    30.9700 ns         1 J6F      -0.429600
     18 S8           2.1430    27.4320    29.1810 s          1 J6F      -0.600400
     19 H1           7.0020    28.0840    34.4500 hn         1 J6F       0.352500
     20 H2           0.0230    35.7950    33.2420 hc         1 J6F       0.032033
     21 H3          -0.8060    34.2300    33.3800 hc         1 J6F       0.032033
     22 H4           0.5480    34.6190    34.4660 hc         1 J6F       0.032033
     23 H5           2.1100    34.6610    32.4920 hc         1 J6F       0.037700
     24 H6           0.7680    34.2750    31.4150 hc         1 J6F       0.037700
     25 H7           0.4530    32.0760    32.5940 hc         1 J6F       0.039700
     26 H8           1.7960    32.4620    33.6710 hc         1 J6F       0.039700
     27 H9           3.3540    32.5420    31.7010 hc         1 J6F       0.043200
     28 H10          2.0120    32.1560    30.6240 hc         1 J6F       0.043200
     29 H11          1.6970    29.9580    31.8040 hc         1 J6F       0.055700
     30 H12          3.0350    30.3460    32.8840 hc         1 J6F       0.055700
     31 H13          4.5950    30.4280    30.9030 h1         1 J6F       0.085200
     32 H14          3.2450    30.0250    29.8370 h1         1 J6F       0.085200
     33 H15          6.4310    23.8370    32.7400 h1         1 J6F       0.064033
     34 H16          4.7880    23.8760    33.4430 h1         1 J6F       0.064033
     35 H17          5.0180    23.9750    31.6730 h1         1 J6F       0.064033
     36 H18          3.5620    25.3760    30.6670 hn         1 J6F       0.489000
     37 CAJ          3.6390    29.8910    30.8520 c3         1 J6F       0.103000
@<TRIPOS>BOND
     1     1     2 2   
     2     1     6 1   
     3     1    17 1   
     4     2     3 1   
     5     2    12 1   
     6     3     5 1   
     7     3    13 2   
     8     4    12 1   
     9     4    17 1   
    10     4    18 2   
    11     5    14 1   
    12     5    19 1   
    13     6    14 1   
    14     6    16 1   
    15     7     8 1   
    16     7    20 1   
    17     7    21 1   
    18     7    22 1   
    19     8     9 1   
    20     8    23 1   
    21     8    24 1   
    22     9    10 1   
    23     9    25 1   
    24     9    26 1   
    25    10    11 1   
    26    10    27 1   
    27    10    28 1   
    28    11    29 1   
    29    11    30 1   
    30    11    37 1   
    31    12    37 1   
    32    14    15 2   
    33    16    33 1   
    34    16    34 1   
    35    16    35 1   
    36    17    36 1   
    37    31    37 1   
    38    32    37 1   
@<TRIPOS>SUBSTRUCTURE
     1 J6F         1 TEMP              0 ****  ****    0 ROOT
