@<TRIPOS>MOLECULE
J6H
   30    31     1     0     0
SMALL
abcg2


@<TRIPOS>ATOM
      1 C2           0.2490     3.2830     0.2800 c          1 J6H       0.716000
      2 C5          -0.6720     0.9510    -0.3260 c3         1 J6H       0.024800
      3 C6           0.6380     0.2070    -0.1830 ca         1 J6H      -0.020300
      4 C7           1.5200     0.4130     0.8720 ca         1 J6H      -0.090500
      5 C8           2.6990    -0.3160     0.9780 ca         1 J6H      -0.114000
      6 C11          2.1420    -1.4890    -1.0520 ca         1 J6H      -0.114000
      7 C12          0.9720    -0.7530    -1.1380 ca         1 J6H      -0.090500
      8 C13         -1.8250     0.0110    -0.0650 cc         1 J6H       0.037800
      9 C14         -1.8930    -0.7000     1.1660 cc         1 J6H      -0.263000
     10 C15         -2.9580    -1.5050     1.3900 cd         1 J6H      -0.065400
     11 C19         -2.8220    -0.1410    -0.9830 cd         1 J6H      -0.338200
     12 O1           0.7110     3.3400    -0.8750 o          1 J6H      -0.728500
     13 O3           0.5180     4.0430     1.2320 o          1 J6H      -0.728500
     14 C4          -0.7990     2.1880     0.5620 c3         1 J6H      -0.210400
     15 C9           2.9990    -1.2630     0.0150 ca         1 J6H       0.107000
     16 CL1          4.4690    -2.1770     0.1400 cl         1 J6H      -0.249000
     17 N16         -3.9370    -1.6380     0.4660 ns         1 J6H      -0.371100
     18 C17         -3.9580    -0.9940    -0.7550 c          1 J6H       0.553200
     19 O18         -4.8900    -1.1700    -1.5380 o          1 J6H      -0.597000
     20 H20         -0.7440     1.2880    -1.3630 hc         1 J6H       0.088700
     21 H24          1.3150     1.1580     1.6290 ha         1 J6H       0.128500
     22 H25          3.3740    -0.1390     1.8040 ha         1 J6H       0.115000
     23 H26          2.3810    -2.2250    -1.8070 ha         1 J6H       0.115000
     24 H27          0.3020    -0.9310    -1.9720 ha         1 J6H       0.128500
     25 H28         -1.1180    -0.6140     1.9130 ha         1 J6H       0.206000
     26 H29         -3.0850    -2.0770     2.2970 h4         1 J6H       0.185000
     27 H30         -2.7890     0.3910    -1.9250 ha         1 J6H       0.209000
     28 H22         -0.7880     1.9180     1.6210 hc         1 J6H       0.027700
     29 H23         -1.7890     2.6230     0.3860 hc         1 J6H       0.027700
     30 H21         -4.7170    -2.2460     0.6750 hn         1 J6H       0.310500
@<TRIPOS>BOND
     1     1    12 1   
     2     1    13 1   
     3     1    14 1   
     4     2     3 1   
     5     2     8 1   
     6     2    14 1   
     7     2    20 1   
     8     3     4 ar  
     9     3     7 ar  
    10     4     5 ar  
    11     4    21 1   
    12     5    15 ar  
    13     5    22 1   
    14     6     7 ar  
    15     6    15 ar  
    16     6    23 1   
    17     7    24 1   
    18     8     9 1   
    19     8    11 2   
    20     9    10 2   
    21     9    25 1   
    22    10    17 1   
    23    10    26 1   
    24    11    18 1   
    25    11    27 1   
    26    14    28 1   
    27    14    29 1   
    28    15    16 1   
    29    17    18 1   
    30    17    30 1   
    31    18    19 2   
@<TRIPOS>SUBSTRUCTURE
     1 J6H         1 TEMP              0 ****  ****    0 ROOT
