@<TRIPOS>MOLECULE
J6H
   30    31     1     0     0
SMALL
No Charge or Current Charge


@<TRIPOS>ATOM
      1 C2           0.2890     3.2860     0.0160 c          1 J6H       0.716000
      2 C5          -0.6900     0.9560    -0.2820 c3         1 J6H       0.024800
      3 C6           0.6400     0.1940    -0.1690 ca         1 J6H      -0.020300
      4 C7           1.3150     0.0360     1.0630 ca         1 J6H      -0.090500
      5 C8           2.5200    -0.6860     1.1300 ca         1 J6H      -0.114000
      6 C11          2.3960    -1.1200    -1.2570 ca         1 J6H      -0.114000
      7 C12          1.1910    -0.3990    -1.3250 ca         1 J6H      -0.090500
      8 C13         -1.8660     0.0420     0.0030 cc         1 J6H       0.037800
      9 C14         -2.1160    -0.4170     1.3470 cc         1 J6H      -0.263000
     10 C15         -3.1730    -1.2540     1.6350 cd         1 J6H      -0.065400
     11 C19         -2.7340    -0.4030    -0.9760 cd         1 J6H      -0.338200
     12 O1           0.0010     3.9720    -0.9530 o          1 J6H      -0.728500
     13 O3           1.3700     3.3350     0.5820 o          1 J6H      -0.728500
     14 C4          -0.7600     2.2860     0.5270 c3         1 J6H      -0.210400
     15 C9           3.0600    -1.2610    -0.0300 ca         1 J6H       0.107000
     16 Cl1          4.5670    -2.1640     0.0560 cl         1 J6H      -0.249000
     17 N16         -4.0030    -1.6570     0.6060 ns         1 J6H      -0.371100
     18 C17         -3.8720    -1.2950    -0.7100 c          1 J6H       0.553200
     19 O18         -4.6400    -1.6880    -1.5730 o          1 J6H      -0.597000
     20 H20         -0.7880     1.2670    -1.3310 hc         1 J6H       0.088700
     21 H24          0.9140     0.4670     1.9760 ha         1 J6H       0.128500
     22 H25          3.0330    -0.8000     2.0810 ha         1 J6H       0.115000
     23 H26          2.8130    -1.5700    -2.1550 ha         1 J6H       0.115000
     24 H27          0.6830    -0.3030    -2.2830 ha         1 J6H       0.128500
     25 H28         -1.4540    -0.0940     2.1460 ha         1 J6H       0.206000
     26 H29         -3.4220    -1.6400     2.6220 h4         1 J6H       0.185000
     27 H30         -2.6250    -0.1160    -2.0140 ha         1 J6H       0.209000
     28 H22         -0.5950     2.0550     1.5840 hc         1 J6H       0.027700
     29 H23         -1.7640     2.6800     0.3280 hc         1 J6H       0.027700
     30 H21         -4.7850    -2.2720     0.7960 hn         1 J6H       0.310500
@<TRIPOS>BOND
     1     1    12 1   
     2     1    13 1   
     3     1    14 1   
     4     2     3 1   
     5     2     8 1   
     6     2    14 1   
     7     2    20 1   
     8     3     4 ar  
     9     3     7 ar  
    10     4     5 ar  
    11     4    21 1   
    12     5    15 ar  
    13     5    22 1   
    14     6     7 ar  
    15     6    15 ar  
    16     6    23 1   
    17     7    24 1   
    18     8     9 1   
    19     8    11 2   
    20     9    10 2   
    21     9    25 1   
    22    10    17 1   
    23    10    26 1   
    24    11    18 1   
    25    11    27 1   
    26    14    28 1   
    27    14    29 1   
    28    15    16 1   
    29    17    18 1   
    30    17    30 1   
    31    18    19 2   
@<TRIPOS>SUBSTRUCTURE
     1 J6H         1 TEMP              0 ****  ****    0 ROOT
