@<TRIPOS>MOLECULE
J6J
   73    78     1     0     0
SMALL
abcg2


@<TRIPOS>ATOM
      1 C13          6.3520     0.4760     0.1670 ca         1 J6J      -0.068800
      2 C18          6.9310     0.5280     1.4370 ca         1 J6J      -0.055500
      3 C17          8.2370     0.9590     1.6040 ca         1 J6J      -0.159000
      4 C16          8.9590     1.3340     0.4870 ca         1 J6J       0.186000
      5 C15          8.4240     1.2820    -0.7860 ca         1 J6J      -0.159000
      6 C20         -0.6570    -1.7470    -0.8610 cp         1 J6J      -0.088000
      7 C21          4.5730     3.8030    -2.3310 c3         1 J6J       0.097300
      8 C22         -1.1200    -2.8900    -1.5050 ca         1 J6J      -0.042000
      9 C23         -2.4260    -2.9850    -1.9630 ca         1 J6J      -0.215000
     10 C24         -3.3120    -1.9220    -1.7900 ca         1 J6J       0.193100
     11 C34         -6.0730     1.6660     0.8000 ca         1 J6J       0.149300
     12 C33         -4.2300     3.3580     0.1820 cx         1 J6J      -0.095400
     13 O1           4.6020    -1.0270     0.7770 os         1 J6J      -0.169200
     14 C2           4.9750     0.0280     0.0030 cc         1 J6J       0.100900
     15 C3           3.9460     0.4250    -0.7960 cd         1 J6J      -0.167400
     16 C4           2.8530    -0.4680    -0.5120 ca         1 J6J      -0.137800
     17 C5           3.3200    -1.3280     0.4730 ca         1 J6J       0.108100
     18 C6           1.5350    -0.6210    -0.9440 ca         1 J6J       0.009000
     19 C7           0.7460    -1.6170    -0.4010 cp         1 J6J      -0.122000
     20 C8           1.2560    -2.4900     0.6090 ca         1 J6J       0.356000
     21 C9           2.5710    -2.3320     1.0570 ca         1 J6J      -0.208000
     22 C10          3.8700     1.5360    -1.7700 c          1 J6J       0.631300
     23 O11          3.2090     1.4210    -2.7960 o          1 J6J      -0.596100
     24 N12          4.5280     2.6590    -1.4520 ns         1 J6J      -0.506900
     25 C14          7.1190     0.8470    -0.9400 ca         1 J6J      -0.055500
     26 F19         10.2220     1.7540     0.6420 f          1 J6J      -0.173000
     27 C25         -2.8650    -0.7630    -1.1390 ca         1 J6J      -0.190600
     28 C26         -1.5550    -0.6980    -0.6820 ca         1 J6J      -0.045000
     29 N28         -3.7870     0.9020     0.3040 ns         1 J6J      -0.465900
     30 O29         -4.3970     0.9130    -1.8700 o          1 J6J      -0.564100
     31 N30          0.4500    -3.4730     1.1180 nu         1 J6J      -0.951200
     32 C31         -4.6240     1.9890     0.6650 cx         1 J6J      -0.010900
     33 C32         -4.0350     3.0060     1.6110 cx         1 J6J      -0.095400
     34 N35         -6.4290     0.3930     0.6970 nb         1 J6J      -0.154500
     35 C36         -7.7150     0.1020     0.8220 ca         1 J6J       0.085400
     36 C37         -8.6410     1.0960     1.0560 ca         1 J6J       0.053000
     37 C38         -8.1920     2.3970     1.1630 ca         1 J6J       0.085400
     38 N39         -6.9060     2.6750     1.0320 nb         1 J6J      -0.154500
     39 C40          0.7990    -4.2150     2.3080 c3         1 J6J       0.209800
     40 C41         -0.3020    -5.1970     2.6590 c3         1 J6J      -0.106100
     41 F42         -9.9380     0.8090     1.1820 f          1 J6J      -0.159000
     42 O43         -4.5910    -1.9420    -2.1840 os         1 J6J      -0.315100
     43 C44         -5.1010    -3.1100    -2.7970 c3         1 J6J       0.146900
     44 H51          6.3600     0.2470     2.3110 ha         1 J6J       0.131500
     45 H50          8.6810     1.0090     2.5890 ha         1 J6J       0.137000
     46 H49          9.0190     1.5610    -1.6460 ha         1 J6J       0.137000
     47 H54          4.9970     3.5440    -3.3020 h1         1 J6J       0.040700
     48 H52          3.5830     4.2300    -2.4920 h1         1 J6J       0.040700
     49 H53          5.2030     4.5600    -1.8730 h1         1 J6J       0.040700
     50 H55         -0.4510    -3.7260    -1.6650 ha         1 J6J       0.125000
     51 H56         -2.7380    -3.8950    -2.4550 ha         1 J6J       0.122000
     52 H62         -3.3590     3.4080    -0.4580 hc         1 J6J       0.086200
     53 H63         -5.0290     4.0390    -0.0760 hc         1 J6J       0.086200
     54 H45          1.1220     0.0220    -1.7100 ha         1 J6J       0.143000
     55 H46          2.9910    -2.9530     1.8360 ha         1 J6J       0.132000
     56 H47          4.9920     2.7230    -0.5620 hn         1 J6J       0.320500
     57 H48          6.7070     0.7730    -1.9370 ha         1 J6J       0.131500
     58 H57         -1.2170     0.2020    -0.1800 ha         1 J6J       0.123000
     59 H58         -3.3970     0.3390     1.0440 hn         1 J6J       0.320500
     60 H59         -0.5390    -3.3250     0.9920 hn         1 J6J       0.479000
     61 H60         -3.0300     2.8120     1.9640 hc         1 J6J       0.086200
     62 H61         -4.7010     3.4370     2.3470 hc         1 J6J       0.086200
     63 H64         -8.0130    -0.9380     0.7380 h4         1 J6J       0.040600
     64 H65         -8.8760     3.2160     1.3540 h4         1 J6J       0.040600
     65 H67          1.7280    -4.7650     2.1340 h1         1 J6J       0.039700
     66 H66          0.9890    -3.5450     3.1580 h1         1 J6J       0.039700
     67 H69         -1.2500    -4.6840     2.8340 hc         1 J6J       0.043367
     68 H68         -0.4510    -5.9250     1.8620 hc         1 J6J       0.043367
     69 H70         -0.0460    -5.7380     3.5690 hc         1 J6J       0.043367
     70 H71         -4.5810    -3.3440    -3.7290 h1         1 J6J       0.043033
     71 H72         -5.0460    -3.9770    -2.1340 h1         1 J6J       0.043033
     72 H73         -6.1450    -2.9060    -3.0210 h1         1 J6J       0.043033
     73 C27         -3.7690     0.4130    -0.9560 c          1 J6J       0.633700
@<TRIPOS>BOND
     1     1     2 ar  
     2     1    14 1   
     3     1    25 ar  
     4     2     3 ar  
     5     2    44 1   
     6     3     4 ar  
     7     3    45 1   
     8     4     5 ar  
     9     4    26 1   
    10     5    25 ar  
    11     5    46 1   
    12     6     8 ar  
    13     6    19 1   
    14     6    28 ar  
    15     7    24 1   
    16     7    47 1   
    17     7    48 1   
    18     7    49 1   
    19     8     9 ar  
    20     8    50 1   
    21     9    10 ar  
    22     9    51 1   
    23    10    27 ar  
    24    10    42 1   
    25    11    32 1   
    26    11    34 ar  
    27    11    38 ar  
    28    12    32 1   
    29    12    33 1   
    30    12    52 1   
    31    12    53 1   
    32    13    14 1   
    33    13    17 1   
    34    14    15 2   
    35    15    16 1   
    36    15    22 1   
    37    16    17 ar  
    38    16    18 ar  
    39    17    21 ar  
    40    18    19 ar  
    41    18    54 1   
    42    19    20 ar  
    43    20    21 ar  
    44    20    31 1   
    45    21    55 1   
    46    22    23 2   
    47    22    24 1   
    48    24    56 1   
    49    25    57 1   
    50    27    28 ar  
    51    27    73 1   
    52    28    58 1   
    53    29    32 1   
    54    29    59 1   
    55    29    73 1   
    56    30    73 2   
    57    31    39 1   
    58    31    60 1   
    59    32    33 1   
    60    33    61 1   
    61    33    62 1   
    62    34    35 ar  
    63    35    36 ar  
    64    35    63 1   
    65    36    37 ar  
    66    36    41 1   
    67    37    38 ar  
    68    37    64 1   
    69    39    40 1   
    70    39    65 1   
    71    39    66 1   
    72    40    67 1   
    73    40    68 1   
    74    40    69 1   
    75    42    43 1   
    76    43    70 1   
    77    43    71 1   
    78    43    72 1   
@<TRIPOS>SUBSTRUCTURE
     1 J6J         1 TEMP              0 ****  ****    0 ROOT
