@<TRIPOS>MOLECULE
J6J
   73    78     1     0     0
SMALL
No Charge or Current Charge


@<TRIPOS>ATOM
      1 C13          6.1250     0.6380     0.4630 ca         1 J6J      -0.068800
      2 C18          6.4810     1.3310     1.6360 ca         1 J6J      -0.055500
      3 C17          7.7530     1.9210     1.7480 ca         1 J6J      -0.159000
      4 C16          8.6690     1.8130     0.6900 ca         1 J6J       0.186000
      5 C15          8.3230     1.1170    -0.4780 ca         1 J6J      -0.159000
      6 C20         -0.7790    -1.8530    -0.9280 cp         1 J6J      -0.088000
      7 C21          4.8670     3.8040    -1.9560 c3         1 J6J       0.097300
      8 C22         -1.1860    -3.0150    -1.6180 ca         1 J6J      -0.042000
      9 C23         -2.4820    -3.1200    -2.1430 ca         1 J6J      -0.215000
     10 C24         -3.4060    -2.0610    -2.0000 ca         1 J6J       0.193100
     11 C34         -5.7720     1.9440     0.9720 ca         1 J6J       0.149300
     12 C33         -4.3590     3.4960    -0.6380 cx         1 J6J      -0.095400
     13 O1           4.5080    -1.1510     1.0110 os         1 J6J      -0.169200
     14 C2           4.8040     0.0330     0.3470 cc         1 J6J       0.100900
     15 C3           3.7380     0.4830    -0.4230 cd         1 J6J      -0.167400
     16 C4           2.6970    -0.4980    -0.2420 ca         1 J6J      -0.137800
     17 C5           3.2190    -1.4340     0.6130 ca         1 J6J       0.108100
     18 C6           1.3980    -0.6080    -0.7550 ca         1 J6J       0.009000
     19 C7           0.6060    -1.7250    -0.3760 cp         1 J6J      -0.122000
     20 C8           1.1600    -2.6890     0.5270 ca         1 J6J       0.356000
     21 C9           2.4740    -2.5420     1.0200 ca         1 J6J      -0.208000
     22 C10          3.6440     1.7220    -1.2590 c          1 J6J       0.631300
     23 O11          2.6640     2.0100    -1.9310 o          1 J6J      -0.596100
     24 N12          4.7440     2.5460    -1.2190 ns         1 J6J      -0.506900
     25 C14          7.0530     0.5260    -0.5910 ca         1 J6J      -0.055500
     26 F19          9.8900     2.3800     0.7980 f          1 J6J      -0.173000
     27 C25         -3.0180    -0.8780    -1.3220 ca         1 J6J      -0.190600
     28 C26         -1.7040    -0.7930    -0.7980 ca         1 J6J      -0.045000
     29 N28         -3.7180     1.1130    -0.0810 ns         1 J6J      -0.465900
     30 O29         -4.8800     0.5280    -1.9450 o          1 J6J      -0.564100
     31 N30          0.3780    -3.7690     0.9490 nu         1 J6J      -0.951200
     32 C31         -4.4800     2.2890     0.2700 cx         1 J6J      -0.010900
     33 C32         -3.6760     3.4950     0.7050 cx         1 J6J      -0.095400
     34 N35         -5.6790     1.6020     2.2790 nb         1 J6J      -0.154500
     35 C36         -6.8310     1.2880     2.9100 ca         1 J6J       0.085400
     36 C37         -8.0620     1.3180     2.2340 ca         1 J6J       0.053000
     37 C38         -8.0590     1.6860     0.8770 ca         1 J6J       0.085400
     38 N39         -6.9110     2.0010     0.2410 nb         1 J6J      -0.154500
     39 C40          0.7610    -4.8750     1.8330 c3         1 J6J       0.209800
     40 C41         -0.4170    -5.8470     2.0000 c3         1 J6J      -0.106100
     41 F42         -9.2140     1.0030     2.8680 f          1 J6J      -0.159000
     42 O43         -4.6960    -2.1750    -2.4840 os         1 J6J      -0.315100
     43 C44         -5.1710    -3.3430    -3.1760 c3         1 J6J       0.146900
     44 H51          5.7710     1.4140     2.4570 ha         1 J6J       0.131500
     45 H50          8.0290     2.4590     2.6510 ha         1 J6J       0.137000
     46 H49          9.0400     1.0350    -1.2920 ha         1 J6J       0.137000
     47 H54          4.7750     3.6110    -3.0330 h1         1 J6J       0.040700
     48 H52          4.0770     4.4970    -1.6400 h1         1 J6J       0.040700
     49 H53          5.8470     4.2530    -1.7510 h1         1 J6J       0.040700
     50 H55         -0.4860    -3.8360    -1.7540 ha         1 J6J       0.125000
     51 H56         -2.7480    -4.0370    -2.6590 ha         1 J6J       0.122000
     52 H62         -3.7360     3.4080    -1.5240 hc         1 J6J       0.086200
     53 H63         -5.2300     4.1350    -0.7600 hc         1 J6J       0.086200
     54 H45          1.0010     0.1380    -1.4390 ha         1 J6J       0.143000
     55 H46          2.9070    -3.2600     1.7060 ha         1 J6J       0.132000
     56 H47          5.5130     2.2510    -0.6310 hn         1 J6J       0.320500
     57 H48          6.7860    -0.0170    -1.4970 ha         1 J6J       0.131500
     58 H57         -1.3690     0.1090    -0.2910 ha         1 J6J       0.123000
     59 H58         -2.9690     0.8170     0.5310 hn         1 J6J       0.320500
     60 H59         -0.5780    -3.7650     0.5950 hn         1 J6J       0.479000
     61 H60         -2.5920     3.4140     0.7200 hc         1 J6J       0.086200
     62 H61         -4.0930     4.1320     1.4820 hc         1 J6J       0.086200
     63 H64         -6.7620     1.0120     3.9600 h4         1 J6J       0.040600
     64 H65         -8.9770     1.7300     0.2950 h4         1 J6J       0.040600
     65 H67          1.6180    -5.4170     1.4110 h1         1 J6J       0.039700
     66 H66          1.0520    -4.4880     2.8200 h1         1 J6J       0.039700
     67 H69         -1.2820    -5.3390     2.4430 hc         1 J6J       0.043367
     68 H68         -0.7150    -6.2680     1.0320 hc         1 J6J       0.043367
     69 H70         -0.1320    -6.6750     2.6590 hc         1 J6J       0.043367
     70 H71         -4.5840    -3.5230    -4.0850 h1         1 J6J       0.043033
     71 H72         -5.1090    -4.2300    -2.5320 h1         1 J6J       0.043033
     72 H73         -6.2190    -3.2090    -3.4700 h1         1 J6J       0.043033
     73 C27         -3.9740     0.2850    -1.1590 c          1 J6J       0.633700
@<TRIPOS>BOND
     1     1     2 ar  
     2     1    14 1   
     3     1    25 ar  
     4     2     3 ar  
     5     2    44 1   
     6     3     4 ar  
     7     3    45 1   
     8     4     5 ar  
     9     4    26 1   
    10     5    25 ar  
    11     5    46 1   
    12     6     8 ar  
    13     6    19 1   
    14     6    28 ar  
    15     7    24 1   
    16     7    47 1   
    17     7    48 1   
    18     7    49 1   
    19     8     9 ar  
    20     8    50 1   
    21     9    10 ar  
    22     9    51 1   
    23    10    27 ar  
    24    10    42 1   
    25    11    32 1   
    26    11    34 ar  
    27    11    38 ar  
    28    12    32 1   
    29    12    33 1   
    30    12    52 1   
    31    12    53 1   
    32    13    14 1   
    33    13    17 1   
    34    14    15 2   
    35    15    16 1   
    36    15    22 1   
    37    16    17 ar  
    38    16    18 ar  
    39    17    21 ar  
    40    18    19 ar  
    41    18    54 1   
    42    19    20 ar  
    43    20    21 ar  
    44    20    31 1   
    45    21    55 1   
    46    22    23 2   
    47    22    24 1   
    48    24    56 1   
    49    25    57 1   
    50    27    28 ar  
    51    27    73 1   
    52    28    58 1   
    53    29    32 1   
    54    29    59 1   
    55    29    73 1   
    56    30    73 2   
    57    31    39 1   
    58    31    60 1   
    59    32    33 1   
    60    33    61 1   
    61    33    62 1   
    62    34    35 ar  
    63    35    36 ar  
    64    35    63 1   
    65    36    37 ar  
    66    36    41 1   
    67    37    38 ar  
    68    37    64 1   
    69    39    40 1   
    70    39    65 1   
    71    39    66 1   
    72    40    67 1   
    73    40    68 1   
    74    40    69 1   
    75    42    43 1   
    76    43    70 1   
    77    43    71 1   
    78    43    72 1   
@<TRIPOS>SUBSTRUCTURE
     1 J6J         1 TEMP              0 ****  ****    0 ROOT
