@<TRIPOS>MOLECULE
J6K
   63    66     1     0     0
SMALL
No Charge or Current Charge


@<TRIPOS>ATOM
      1 C1           6.5390     0.8550    -2.1950 c3         1 J6K       0.151900
      2 C3           5.0560    -0.5550    -0.8140 ca         1 J6K       0.119100
      3 C5           3.0710     0.3230     0.3640 ca         1 J6K      -0.040300
      4 C6           2.7970    -0.9750     0.8570 ca         1 J6K      -0.076000
      5 C7           3.6540    -2.0280     0.5130 ca         1 J6K       0.050400
      6 C12          4.7320    -1.8130    -0.2850 ca         1 J6K      -0.113200
      7 C13          2.1110     1.4630     0.7350 c3         1 J6K       0.032900
      8 C14          2.7740     2.8720     0.7610 c3         1 J6K      -0.207400
      9 C15          1.8600     3.8820     1.4730 c          1 J6K       0.713000
     10 O17          1.0950     4.5520     0.7970 o          1 J6K      -0.731500
     11 C19          0.9940     1.5960    -1.5600 ca         1 J6K      -0.073000
     12 C21         -1.4070     1.2370    -1.8430 ca         1 J6K      -0.098300
     13 C22         -2.6070     1.1490    -2.7830 c3         1 J6K      -0.037800
     14 C23         -1.5350     1.0410    -0.4440 ca         1 J6K      -0.110300
     15 C24         -2.8770     0.7260     0.2250 c3         1 J6K       0.244100
     16 C26         -2.7400    -1.6940    -0.2330 c3         1 J6K       0.171100
     17 C31         -6.2830    -1.1960    -0.1260 ca         1 J6K      -0.015500
     18 C35         -6.1630     0.9960     0.9400 ca         1 J6K      -0.015500
     19 C36         -0.3910     1.1270     0.3740 ca         1 J6K      -0.092000
     20 O2           6.1640    -0.4120    -1.6260 os         1 J6K      -0.356100
     21 C4           4.2010     0.5250    -0.4790 ca         1 J6K      -0.158000
     22 N8           3.5750    -3.3680     0.8830 nc         1 J6K      -0.232400
     23 N9           4.6080    -3.9920     0.3130 nd         1 J6K      -0.189400
     24 N10          5.3130    -3.0420    -0.3990 na         1 J6K       0.077600
     25 O16          1.9260     3.9530     2.6910 o          1 J6K      -0.731500
     26 C18          0.8770     1.4070    -0.1700 ca         1 J6K      -0.036300
     27 C20         -0.1380     1.5140    -2.3860 ca         1 J6K      -0.119000
     28 N25         -2.9420    -0.6400     0.7880 n3         1 J6K      -0.699500
     29 S27         -4.2900    -0.8890     1.8070 sy         1 J6K       1.148600
     30 O28         -4.4060    -2.3410     1.9970 o          1 J6K      -0.532000
     31 O29         -4.1000     0.0000     2.9590 o          1 J6K      -0.532000
     32 C30         -5.6790    -0.3220     0.8030 ca         1 J6K      -0.300500
     33 C32         -7.3570    -0.7480    -0.9150 ca         1 J6K      -0.135000
     34 C33         -7.8330     0.5670    -0.7810 ca         1 J6K      -0.065000
     35 C34         -7.2360     1.4370     0.1470 ca         1 J6K      -0.135000
     36 H40          5.7420     1.2440    -2.8420 h1         1 J6K       0.039700
     37 H38          6.7460     1.5910    -1.4070 h1         1 J6K       0.039700
     38 H39          7.4460     0.7440    -2.8030 h1         1 J6K       0.039700
     39 H42          1.9330    -1.1620     1.4900 ha         1 J6K       0.143000
     40 H43          7.3650    -2.7560    -0.7810 h1         1 J6K       0.054033
     41 H44          6.7680    -4.4150    -1.0770 h1         1 J6K       0.054033
     42 H45          6.3640    -3.1050    -2.2240 h1         1 J6K       0.054033
     43 H37          1.7890     1.2730     1.7680 hc         1 J6K       0.095700
     44 H47          3.6960     2.7440     1.3410 hc         1 J6K       0.026200
     45 H46          2.9450     3.1790    -0.2770 hc         1 J6K       0.026200
     46 H48          1.9660     1.8010    -2.0040 ha         1 J6K       0.156000
     47 H50         -3.3410     1.9330    -2.5600 hc         1 J6K       0.029033
     48 H51         -2.3130     1.2680    -3.8330 hc         1 J6K       0.029033
     49 H52         -3.1100     0.1790    -2.6960 hc         1 J6K       0.029033
     50 H53         -3.0170     1.4660     1.0250 h1         1 J6K       0.051700
     51 H54         -3.7000     0.8840    -0.4830 h1         1 J6K       0.051700
     52 H56         -1.8110    -1.5290    -0.7940 h1         1 J6K       0.052700
     53 H57         -2.6590    -2.6880     0.2270 h1         1 J6K       0.052700
     54 H55         -3.5690    -1.7130    -0.9520 h1         1 J6K       0.052700
     55 H58         -5.9260    -2.2180    -0.2400 ha         1 J6K       0.136000
     56 H62         -5.7100     1.6830     1.6540 ha         1 J6K       0.136000
     57 H63         -0.4940     0.9660     1.4450 ha         1 J6K       0.123000
     58 H41          4.4040     1.5150    -0.8710 ha         1 J6K       0.127000
     59 H49         -0.0220     1.6640    -3.4570 ha         1 J6K       0.102000
     60 H59         -7.8200    -1.4220    -1.6320 ha         1 J6K       0.114000
     61 H60         -8.6640     0.9100    -1.3940 ha         1 J6K       0.110000
     62 H61         -7.6060     2.4540     0.2520 ha         1 J6K       0.114000
     63 C11          6.5280    -3.3490    -1.1680 c3         1 J6K       0.084900
@<TRIPOS>BOND
     1     1    20 1   
     2     1    36 1   
     3     1    37 1   
     4     1    38 1   
     5     2     6 ar  
     6     2    20 1   
     7     2    21 ar  
     8     3     4 ar  
     9     3     7 1   
    10     3    21 ar  
    11     4     5 ar  
    12     4    39 1   
    13     5     6 ar  
    14     5    22 1   
    15     6    24 1   
    16     7     8 1   
    17     7    26 1   
    18     7    43 1   
    19     8     9 1   
    20     8    44 1   
    21     8    45 1   
    22     9    10 1   
    23     9    25 1   
    24    11    26 ar  
    25    11    27 ar  
    26    11    46 1   
    27    12    13 1   
    28    12    14 ar  
    29    12    27 ar  
    30    13    47 1   
    31    13    48 1   
    32    13    49 1   
    33    14    15 1   
    34    14    19 ar  
    35    15    28 1   
    36    15    50 1   
    37    15    51 1   
    38    16    28 1   
    39    16    52 1   
    40    16    53 1   
    41    16    54 1   
    42    17    32 ar  
    43    17    33 ar  
    44    17    55 1   
    45    18    32 ar  
    46    18    35 ar  
    47    18    56 1   
    48    19    26 ar  
    49    19    57 1   
    50    21    58 1   
    51    22    23 2   
    52    23    24 1   
    53    24    63 1   
    54    27    59 1   
    55    28    29 1   
    56    29    30 2   
    57    29    31 2   
    58    29    32 1   
    59    33    34 ar  
    60    33    60 1   
    61    34    35 ar  
    62    34    61 1   
    63    35    62 1   
    64    40    63 1   
    65    41    63 1   
    66    42    63 1   
@<TRIPOS>SUBSTRUCTURE
     1 J6K         1 TEMP              0 ****  ****    0 ROOT
