@<TRIPOS>MOLECULE
J6K
   63    66     1     0     0
SMALL
abcg2


@<TRIPOS>ATOM
      1 C1           3.2050    -0.7240    -3.1340 c3         1 J6K       0.151900
      2 C3           3.1980    -1.0760    -0.7980 ca         1 J6K       0.119100
      3 C5           2.7020     0.6740     0.8450 ca         1 J6K      -0.040300
      4 C6           2.8360    -0.1920     1.9010 ca         1 J6K      -0.076000
      5 C7           3.1610    -1.5250     1.6050 ca         1 J6K       0.050400
      6 C12          3.3360    -1.9550     0.2930 ca         1 J6K      -0.113200
      7 C13          2.3740     2.1320     1.0790 c3         1 J6K       0.032900
      8 C14          3.5950     3.0090     0.8060 c3         1 J6K      -0.207400
      9 C15          3.4780     4.4600     1.3130 c          1 J6K       0.713000
     10 O17          4.0940     5.3290     0.6620 o          1 J6K      -0.731500
     11 C19          1.0760     3.6060    -0.5700 ca         1 J6K      -0.073000
     12 C21         -1.2240     3.0850    -1.1620 ca         1 J6K      -0.098300
     13 C22         -2.4580     3.4090    -1.9550 c3         1 J6K      -0.037800
     14 C23         -1.1630     1.9800    -0.3020 ca         1 J6K      -0.110300
     15 C24         -2.3570     1.0700    -0.1310 c3         1 J6K       0.244100
     16 C26         -1.3670    -0.9500    -1.0870 c3         1 J6K       0.171100
     17 C31         -4.4770    -2.5690    -0.7570 ca         1 J6K      -0.015500
     18 C35         -5.4340    -0.5810     0.2440 ca         1 J6K      -0.015500
     19 C36         -0.0040     1.7280     0.4140 ca         1 J6K      -0.092000
     20 O2           3.3830    -1.5850    -2.0250 os         1 J6K      -0.356100
     21 C4           2.8830     0.2280    -0.4920 ca         1 J6K      -0.158000
     22 N8           3.3530    -2.5990     2.4210 nc         1 J6K      -0.232400
     23 N9           3.6260    -3.6160     1.6930 nd         1 J6K      -0.189400
     24 N10          3.6240    -3.2740     0.4140 na         1 J6K       0.077600
     25 O16          2.8130     4.6440     2.3520 o          1 J6K      -0.731500
     26 C18          1.1370     2.5190     0.2920 ca         1 J6K      -0.036300
     27 C20         -0.0910     3.8820    -1.2720 ca         1 J6K      -0.119000
     28 N25         -1.9350    -0.3110     0.0930 n3         1 J6K      -0.699500
     29 S27         -2.9070    -1.2460     1.0490 sy         1 J6K       1.148600
     30 O28         -2.2440    -2.5290     1.2050 o          1 J6K      -0.532000
     31 O29         -3.2280    -0.4620     2.2300 o          1 J6K      -0.532000
     32 C30         -4.3960    -1.4970     0.1230 ca         1 J6K      -0.300500
     33 C32         -5.6180    -2.7200    -1.5310 ca         1 J6K      -0.135000
     34 C33         -6.6610    -1.8100    -1.4220 ca         1 J6K      -0.065000
     35 C34         -6.5690    -0.7440    -0.5360 ca         1 J6K      -0.135000
     36 H40          2.1850    -0.3340    -3.1820 h1         1 J6K       0.039700
     37 H38          3.9030     0.1170    -3.1100 h1         1 J6K       0.039700
     38 H39          3.3970    -1.3200    -4.0220 h1         1 J6K       0.039700
     39 H42          2.6920     0.1350     2.9230 ha         1 J6K       0.143000
     40 H43          4.8370    -3.9910    -1.1330 h1         1 J6K       0.054033
     41 H44          4.0630    -5.2120    -0.1110 h1         1 J6K       0.054033
     42 H45          3.1050    -4.3340    -1.3140 h1         1 J6K       0.054033
     43 H37          2.1360     2.2470     2.1410 hc         1 J6K       0.095700
     44 H47          4.4500     2.5580     1.3220 hc         1 J6K       0.026200
     45 H46          3.8540     2.9950    -0.2560 hc         1 J6K       0.026200
     46 H48          1.9300     4.2550    -0.7130 ha         1 J6K       0.156000
     47 H50         -3.3370     3.5270    -1.3180 hc         1 J6K       0.029033
     48 H51         -2.3300     4.3350    -2.5130 hc         1 J6K       0.029033
     49 H52         -2.6920     2.6220    -2.6760 hc         1 J6K       0.029033
     50 H53         -2.9430     1.4190     0.7200 h1         1 J6K       0.051700
     51 H54         -3.0120     1.1200    -1.0080 h1         1 J6K       0.051700
     52 H56         -0.5190    -0.3530    -1.4190 h1         1 J6K       0.052700
     53 H57         -0.9940    -1.9420    -0.8520 h1         1 J6K       0.052700
     54 H55         -2.0860    -1.0160    -1.9100 h1         1 J6K       0.052700
     55 H58         -3.6720    -3.2870    -0.8390 ha         1 J6K       0.136000
     56 H62         -5.3760     0.2430     0.9410 ha         1 J6K       0.136000
     57 H63          0.0200     0.8650     1.0710 ha         1 J6K       0.123000
     58 H41          2.7590     0.9550    -1.2840 ha         1 J6K       0.127000
     59 H49         -0.1130     4.7400    -1.9350 ha         1 J6K       0.102000
     60 H59         -5.6920    -3.5540    -2.2150 ha         1 J6K       0.114000
     61 H60         -7.5500    -1.9340    -2.0260 ha         1 J6K       0.110000
     62 H61         -7.3860    -0.0410    -0.4440 ha         1 J6K       0.114000
     63 C11          3.9250    -4.2550    -0.6040 c3         1 J6K       0.084900
@<TRIPOS>BOND
     1     1    20 1   
     2     1    36 1   
     3     1    37 1   
     4     1    38 1   
     5     2     6 ar  
     6     2    20 1   
     7     2    21 ar  
     8     3     4 ar  
     9     3     7 1   
    10     3    21 ar  
    11     4     5 ar  
    12     4    39 1   
    13     5     6 ar  
    14     5    22 1   
    15     6    24 1   
    16     7     8 1   
    17     7    26 1   
    18     7    43 1   
    19     8     9 1   
    20     8    44 1   
    21     8    45 1   
    22     9    10 1   
    23     9    25 1   
    24    11    26 ar  
    25    11    27 ar  
    26    11    46 1   
    27    12    13 1   
    28    12    14 ar  
    29    12    27 ar  
    30    13    47 1   
    31    13    48 1   
    32    13    49 1   
    33    14    15 1   
    34    14    19 ar  
    35    15    28 1   
    36    15    50 1   
    37    15    51 1   
    38    16    28 1   
    39    16    52 1   
    40    16    53 1   
    41    16    54 1   
    42    17    32 ar  
    43    17    33 ar  
    44    17    55 1   
    45    18    32 ar  
    46    18    35 ar  
    47    18    56 1   
    48    19    26 ar  
    49    19    57 1   
    50    21    58 1   
    51    22    23 2   
    52    23    24 1   
    53    24    63 1   
    54    27    59 1   
    55    28    29 1   
    56    29    30 2   
    57    29    31 2   
    58    29    32 1   
    59    33    34 ar  
    60    33    60 1   
    61    34    35 ar  
    62    34    61 1   
    63    35    62 1   
    64    40    63 1   
    65    41    63 1   
    66    42    63 1   
@<TRIPOS>SUBSTRUCTURE
     1 J6K         1 TEMP              0 ****  ****    0 ROOT
