@<TRIPOS>MOLECULE
J6L
   51    54     1     0     0
SMALL
No Charge or Current Charge


@<TRIPOS>ATOM
      1 C4          14.5110    67.6070    40.7340 c2         1 J6L      -0.268200
      2 C5          15.1000    67.0430    39.6640 ce         1 J6L      -0.110200
      3 C6          15.8340    65.7620    39.8190 ca         1 J6L      -0.186800
      4 C8          17.1830    63.6580    36.4200 cc         1 J6L      -0.203400
      5 C13         17.2830    63.3820    40.2290 ca         1 J6L       0.012000
      6 C15         17.5290    63.0750    37.7320 c          1 J6L       0.608900
      7 C1          20.0770    60.8180    31.3580 c3         1 J6L       0.153900
      8 C12         18.4920    63.6710    34.3150 ca         1 J6L      -0.075000
      9 C11         16.0760    65.2930    41.1240 ca         1 J6L       0.215100
     10 C14         17.0320    63.8370    38.9180 ca         1 J6L      -0.265600
     11 C16         14.5290    66.9260    42.0950 c6         1 J6L       0.231200
     12 C18         13.2290    66.1030    42.2870 c3         1 J6L      -0.098100
     13 C2          16.8080    64.1170    41.3270 ca         1 J6L      -0.184000
     14 C19         18.8660    63.1000    33.0880 ca         1 J6L       0.042100
     15 C23         19.3640    64.1980    30.9610 c3         1 J6L       0.148900
     16 C3          18.3210    61.8450    32.7070 ca         1 J6L       0.129100
     17 C7          17.3710    61.2180    33.5270 ca         1 J6L      -0.215000
     18 C10         16.9820    61.8060    34.7510 ca         1 J6L       0.178100
     19 C9          16.3140    65.0270    38.7160 ca         1 J6L       0.197100
     20 CAA         16.4730    64.8360    36.3050 cd         1 J6L       0.036100
     21 CAB         17.5560    63.0330    35.1500 ca         1 J6L      -0.067800
     22 CAC         15.4100    59.9650    35.2620 c3         1 J6L       0.147900
     23 O3          18.6990    61.1830    31.5590 os         1 J6L      -0.364100
     24 O4          18.1850    62.0470    37.8580 o          1 J6L      -0.531100
     25 O5          15.6400    66.0090    42.2230 os         1 J6L      -0.344100
     26 O1          16.0420    61.2180    35.5780 os         1 J6L      -0.327100
     27 OP3         16.0740    65.4900    37.4420 os         1 J6L      -0.207200
     28 H17         13.9680    68.5510    40.6530 ha         1 J6L       0.190000
     29 H18         15.0700    67.5040    38.6740 ha         1 J6L       0.196000
     30 H10         17.8450    62.4650    40.4020 ha         1 J6L       0.141000
     31 H11         14.7100    67.4840    44.2140 hc         1 J6L       0.049367
     32 H13         15.5890    68.5570    43.1120 hc         1 J6L       0.049367
     33 H12         13.8270    68.6680    43.2390 hc         1 J6L       0.049367
     34 H2          20.1890    60.2660    30.4160 h1         1 J6L       0.038700
     35 H3          20.7270    61.7000    31.3110 h1         1 J6L       0.038700
     36 H1          20.4270    60.1750    32.1750 h1         1 J6L       0.038700
     37 H19         18.9230    64.6240    34.6120 ha         1 J6L       0.126000
     38 H15         13.2280    65.5780    43.2500 hc         1 J6L       0.049367
     39 H16         12.3430    66.7490    42.2590 hc         1 J6L       0.049367
     40 H14         13.1150    65.3520    41.4960 hc         1 J6L       0.049367
     41 H9          17.0040    63.7720    42.3390 ha         1 J6L       0.137000
     42 H20         20.1600    64.7940    30.4980 h1         1 J6L       0.035367
     43 H21         19.1800    63.3270    30.3220 h1         1 J6L       0.035367
     44 H22         18.4510    64.8070    30.9820 h1         1 J6L       0.035367
     45 H4          16.9600    60.2680    33.2040 ha         1 J6L       0.130000
     46 H8          16.1760    65.3280    35.3830 h4         1 J6L       0.230000
     47 H6          14.7040    59.6860    36.0530 h1         1 J6L       0.042367
     48 H5          14.8540    60.0360    34.3190 h1         1 J6L       0.042367
     49 H7          16.1550    59.1640    35.1740 h1         1 J6L       0.042367
     50 C17         14.6710    67.9680    43.2310 c3         1 J6L      -0.098100
     51 O2          19.7430    63.8110    32.2950 os         1 J6L      -0.351100
@<TRIPOS>BOND
     1     1     2 2   
     2     1    11 1   
     3     1    28 1   
     4     2     3 1   
     5     2    29 1   
     6     3     9 ar  
     7     3    19 ar  
     8     4     6 1   
     9     4    20 2   
    10     4    21 1   
    11     5    10 ar  
    12     5    13 ar  
    13     5    30 1   
    14     6    10 1   
    15     6    24 2   
    16     7    23 1   
    17     7    34 1   
    18     7    35 1   
    19     7    36 1   
    20     8    14 ar  
    21     8    21 ar  
    22     8    37 1   
    23     9    13 ar  
    24     9    25 1   
    25    10    19 ar  
    26    11    12 1   
    27    11    25 1   
    28    11    50 1   
    29    12    38 1   
    30    12    39 1   
    31    12    40 1   
    32    13    41 1   
    33    14    16 ar  
    34    14    51 1   
    35    15    42 1   
    36    15    43 1   
    37    15    44 1   
    38    15    51 1   
    39    16    17 ar  
    40    16    23 1   
    41    17    18 ar  
    42    17    45 1   
    43    18    21 ar  
    44    18    26 1   
    45    19    27 1   
    46    20    27 1   
    47    20    46 1   
    48    22    26 1   
    49    22    47 1   
    50    22    48 1   
    51    22    49 1   
    52    31    50 1   
    53    32    50 1   
    54    33    50 1   
@<TRIPOS>SUBSTRUCTURE
     1 J6L         1 TEMP              0 ****  ****    0 ROOT
