@<TRIPOS>MOLECULE
J6L
   51    54     1     0     0
SMALL
bcc


@<TRIPOS>ATOM
      1 C4          14.5730    67.6070    40.6840 c2         1 J6L      -0.218200
      2 C5          15.1100    67.0550    39.5980 ce         1 J6L      -0.060200
      3 C6          15.7910    65.7750    39.7140 ca         1 J6L      -0.186800
      4 C8          17.0360    63.6690    36.3400 cc         1 J6L      -0.203400
      5 C13         17.2360    63.4070    40.0960 ca         1 J6L      -0.006000
      6 C15         17.4160    63.0810    37.6240 c          1 J6L       0.608900
      7 C1          19.9770    60.5160    31.6860 c3         1 J6L       0.130700
      8 C12         18.3840    63.7130    34.2540 ca         1 J6L      -0.093000
      9 C11         16.0800    65.3050    40.9940 ca         1 J6L       0.215100
     10 C14         16.9530    63.8320    38.7920 ca         1 J6L      -0.265600
     11 C16         14.5940    66.9000    42.0100 c6         1 J6L       0.208000
     12 C18         13.3100    66.0960    42.1950 c3         1 J6L      -0.098100
     13 C2          16.8070    64.1240    41.1860 ca         1 J6L      -0.202000
     14 C19         18.8470    63.1450    33.0740 ca         1 J6L       0.042100
     15 C23         19.1890    64.5630    31.2500 c3         1 J6L       0.125700
     16 C3          18.3860    61.8830    32.7110 ca         1 J6L       0.129100
     17 C7          17.4790    61.2070    33.5200 ca         1 J6L      -0.233000
     18 C10         17.0170    61.7870    34.6960 ca         1 J6L       0.178100
     19 C9          16.2340    65.0140    38.6320 ca         1 J6L       0.197100
     20 CAA         16.3410    64.8180    36.3190 cd         1 J6L       0.086100
     21 CAB         17.4860    63.0510    35.0790 ca         1 J6L      -0.067800
     22 CAC         15.6500    59.9180    35.2110 c3         1 J6L       0.124700
     23 O3          18.8050    61.3100    31.5520 os         1 J6L      -0.340900
     24 O4          18.0870    62.0650    37.7180 o          1 J6L      -0.531100
     25 O5          15.7220    65.9980    42.0780 os         1 J6L      -0.320900
     26 O1          16.1100    61.2210    35.5090 os         1 J6L      -0.303900
     27 OP3         15.9410    65.4890    37.4030 os         1 J6L      -0.207200
     28 H17         14.0680    68.5640    40.6380 ha         1 J6L       0.140000
     29 H18         15.0630    67.5570    38.6410 ha         1 J6L       0.146000
     30 H10         17.7970    62.4930    40.2390 ha         1 J6L       0.159000
     31 H11         14.8400    67.3580    44.1090 hc         1 J6L       0.049367
     32 H13         15.7090    68.4590    43.0260 hc         1 J6L       0.049367
     33 H12         13.9570    68.5770    43.1920 hc         1 J6L       0.049367
     34 H2          20.2080    60.1160    30.7000 h1         1 J6L       0.038700
     35 H3          20.8280    61.1030    32.0370 h1         1 J6L       0.038700
     36 H1          19.8170    59.6820    32.3740 h1         1 J6L       0.038700
     37 H19         18.7560    64.6870    34.5480 ha         1 J6L       0.144000
     38 H15         13.3060    65.5870    43.1610 hc         1 J6L       0.049367
     39 H16         12.4470    66.7620    42.1610 hc         1 J6L       0.049367
     40 H14         13.1880    65.3520    41.4070 hc         1 J6L       0.049367
     41 H9          17.0250    63.7900    42.1920 ha         1 J6L       0.155000
     42 H20         20.0090    65.0320    30.7100 h1         1 J6L       0.035367
     43 H21         18.6240    63.9360    30.5550 h1         1 J6L       0.035367
     44 H22         18.5260    65.3460    31.6310 h1         1 J6L       0.035367
     45 H4          17.1350    60.2330    33.1960 ha         1 J6L       0.148000
     46 H8          16.0350    65.3140    35.4070 h4         1 J6L       0.180000
     47 H6          14.9670    59.6410    36.0100 h1         1 J6L       0.042367
     48 H5          15.1110    59.8830    34.2600 h1         1 J6L       0.042367
     49 H7          16.4690    59.1950    35.1790 h1         1 J6L       0.042367
     50 C17         14.7940    67.8800    43.1540 c3         1 J6L      -0.098100
     51 O2          19.7590    63.8030    32.3060 os         1 J6L      -0.327900
@<TRIPOS>BOND
     1     1     2 2   
     2     1    11 1   
     3     1    28 1   
     4     2     3 1   
     5     2    29 1   
     6     3     9 ar  
     7     3    19 ar  
     8     4     6 1   
     9     4    20 2   
    10     4    21 1   
    11     5    10 ar  
    12     5    13 ar  
    13     5    30 1   
    14     6    10 1   
    15     6    24 2   
    16     7    23 1   
    17     7    34 1   
    18     7    35 1   
    19     7    36 1   
    20     8    14 ar  
    21     8    21 ar  
    22     8    37 1   
    23     9    13 ar  
    24     9    25 1   
    25    10    19 ar  
    26    11    12 1   
    27    11    25 1   
    28    11    50 1   
    29    12    38 1   
    30    12    39 1   
    31    12    40 1   
    32    13    41 1   
    33    14    16 ar  
    34    14    51 1   
    35    15    42 1   
    36    15    43 1   
    37    15    44 1   
    38    15    51 1   
    39    16    17 ar  
    40    16    23 1   
    41    17    18 ar  
    42    17    45 1   
    43    18    21 ar  
    44    18    26 1   
    45    19    27 1   
    46    20    27 1   
    47    20    46 1   
    48    22    26 1   
    49    22    47 1   
    50    22    48 1   
    51    22    49 1   
    52    31    50 1   
    53    32    50 1   
    54    33    50 1   
@<TRIPOS>SUBSTRUCTURE
     1 J6L         1 TEMP              0 ****  ****    0 ROOT
