@<TRIPOS>MOLECULE
J6M
   74    78     1     0     0
SMALL
bcc


@<TRIPOS>ATOM
      1 N1         -13.0250   -32.7050     9.7960 nh         1 J6M      -0.684700
      2 N3          -9.8750   -27.7610    10.1190 nb         1 J6M      -0.799000
      3 C4         -12.0560   -31.7690     9.8760 cc         1 J6M       0.719300
      4 C5         -11.0740   -29.8080     9.9890 cd         1 J6M       0.334300
      5 C6         -11.0680   -28.3340    10.0630 ca         1 J6M       0.706000
      6 C7          -9.8560   -26.4220    10.1810 ca         1 J6M       0.729200
      7 C8         -11.0330   -25.6750    10.1790 ca         1 J6M      -0.524600
      8 C10         -9.9490   -30.5680     9.9480 cc         1 J6M      -0.174400
      9 C13        -12.0870   -36.1510    10.7950 cp         1 J6M      -0.054000
     10 C15        -11.1420   -36.3560    13.0990 ca         1 J6M      -0.142000
     11 C17        -11.2190   -38.4340    14.2870 ca         1 J6M      -0.304500
     12 C20         -6.5890   -40.1570    12.6590 c3         1 J6M       0.149100
     13 C21         -6.8010   -39.8010    15.0500 c6         1 J6M       0.167800
     14 C22         -8.1300   -39.0560    15.1310 c6         1 J6M       0.148300
     15 C24        -12.2040   -38.2670    12.1110 ca         1 J6M      -0.142000
     16 C26        -12.2340   -36.0150     8.3840 ca         1 J6M      -0.131000
     17 C1         -16.4040   -31.6310    11.2320 c3         1 J6M      -0.086100
     18 C3         -14.4270   -32.3130     9.8350 c3         1 J6M       0.245800
     19 N2         -12.2610   -30.4920     9.9510 nd         1 J6M      -0.690000
     20 N4          -8.6420   -25.8390    10.2810 nv         1 J6M      -0.959500
     21 C9         -12.2270   -26.3890    10.1170 ca         1 J6M       0.729200
     22 N5         -13.4280   -25.7730    10.0720 nv         1 J6M      -0.959500
     23 N6         -12.2440   -27.7310    10.0620 nb         1 J6M      -0.799000
     24 S1         -10.3680   -32.2380     9.8580 ss         1 J6M      -0.258300
     25 C11        -12.6720   -34.0750     9.7000 ca         1 J6M       0.118600
     26 C12        -12.4300   -34.8020    10.8560 ca         1 J6M      -0.098000
     27 C14        -11.8130   -36.9300    12.0180 cp         1 J6M       0.024000
     28 C16        -10.8430   -37.0980    14.2290 ca         1 J6M      -0.035500
     29 O1         -11.6100   -40.5720    15.7450 o          1 J6M      -0.603800
     30 O2         -10.4970   -38.5920    16.8100 o          1 J6M      -0.603800
     31 N7          -9.2190   -40.0370    15.2150 n3         1 J6M      -0.702500
     32 C18         -9.2090   -41.0070    14.1150 c6         1 J6M       0.148300
     33 C19         -7.8430   -41.6850    14.0680 c6         1 J6M       0.167800
     34 N8          -6.7310   -40.7620    13.9690 n3         1 J6M      -0.710600
     35 C23        -11.9100   -39.0200    13.2330 ca         1 J6M      -0.035500
     36 C25        -11.9960   -36.7450     9.5370 ca         1 J6M      -0.101000
     37 C27        -12.5730   -34.6670     8.4360 ca         1 J6M      -0.047300
     38 H1         -11.0190   -24.5940    10.2260 ha         1 J6M       0.142000
     39 H2          -8.9220   -30.2460     9.9670 h4         1 J6M       0.191000
     40 H3         -10.8220   -35.3220    13.0540 ha         1 J6M       0.140500
     41 H4          -5.6960   -39.5310    12.6450 h1         1 J6M       0.032033
     42 H5          -6.4530   -40.9400    11.9110 h1         1 J6M       0.032033
     43 H6          -7.4330   -39.5350    12.3340 h1         1 J6M       0.032033
     44 H7          -6.6380   -40.3270    15.9950 h1         1 J6M       0.064700
     45 H8          -5.9970   -39.0710    14.9410 h1         1 J6M       0.064700
     46 H9          -8.2580   -38.4000    14.2600 h1         1 J6M       0.058200
     47 H10         -8.1310   -38.4320    16.0220 h1         1 J6M       0.058200
     48 H11        -12.7580   -38.7280    11.3030 ha         1 J6M       0.140500
     49 H12        -12.1420   -36.5020     7.4210 ha         1 J6M       0.138000
     50 H13        -13.8060   -33.4260     7.1790 hc         1 J6M       0.051367
     51 H14        -12.0930   -33.0540     7.0970 hc         1 J6M       0.051367
     52 H15        -12.7160   -34.4990     6.3050 hc         1 J6M       0.051367
     53 H16        -16.7730   -31.4620    12.2430 hc         1 J6M       0.033367
     54 H17        -16.5320   -30.7030    10.6730 hc         1 J6M       0.033367
     55 H18        -17.0410   -32.3870    10.7700 hc         1 J6M       0.033367
     56 H19        -14.8360   -32.9810    11.8380 hc         1 J6M       0.051200
     57 H20        -14.3310   -31.3050    11.7260 hc         1 J6M       0.051200
     58 H21        -14.5570   -31.4180     9.2240 h1         1 J6M       0.057200
     59 H22        -15.0010   -33.1100     9.3580 h1         1 J6M       0.057200
     60 H23         -7.8320   -26.3990    10.0750 hn         1 J6M       0.429050
     61 H24         -8.5500   -24.8510    10.1180 hn         1 J6M       0.429050
     62 H25        -14.2510   -26.3320    10.2190 hn         1 J6M       0.429050
     63 H26        -13.5000   -24.7990    10.3120 hn         1 J6M       0.429050
     64 H27        -12.5310   -34.3010    11.8120 ha         1 J6M       0.149000
     65 H28        -10.3130   -36.6320    15.0490 ha         1 J6M       0.153500
     66 H29         -9.4330   -40.5210    13.1560 h1         1 J6M       0.058200
     67 H30         -9.9720   -41.7630    14.2900 h1         1 J6M       0.058200
     68 H31         -7.7210   -42.2840    14.9760 h1         1 J6M       0.064700
     69 H32         -7.8240   -42.3730    13.2200 h1         1 J6M       0.064700
     70 H34        -12.2290   -40.0530    13.2800 ha         1 J6M       0.153500
     71 H35        -11.7130   -37.7870     9.4480 ha         1 J6M       0.135000
     72 S2         -10.7030   -39.4410    15.6500 sy         1 J6M       1.289200
     73 C28        -12.8110   -33.8720     7.1900 c3         1 J6M      -0.050800
     74 C2         -14.9460   -32.0690    11.2460 c3         1 J6M      -0.099400
@<TRIPOS>BOND
     1     1     3 1   
     2     1    18 1   
     3     1    25 1   
     4     2     5 ar  
     5     2     6 ar  
     6     3    19 2   
     7     3    24 1   
     8     4     5 1   
     9     4     8 2   
    10     4    19 1   
    11     5    23 ar  
    12     6     7 ar  
    13     6    20 1   
    14     7    21 ar  
    15     7    38 1   
    16     8    24 1   
    17     8    39 1   
    18     9    26 ar  
    19     9    27 1   
    20     9    36 ar  
    21    10    27 ar  
    22    10    28 ar  
    23    10    40 1   
    24    11    28 ar  
    25    11    35 ar  
    26    11    72 1   
    27    12    34 1   
    28    12    41 1   
    29    12    42 1   
    30    12    43 1   
    31    13    14 1   
    32    13    34 1   
    33    13    44 1   
    34    13    45 1   
    35    14    31 1   
    36    14    46 1   
    37    14    47 1   
    38    15    27 ar  
    39    15    35 ar  
    40    15    48 1   
    41    16    36 ar  
    42    16    37 ar  
    43    16    49 1   
    44    17    53 1   
    45    17    54 1   
    46    17    55 1   
    47    17    74 1   
    48    18    58 1   
    49    18    59 1   
    50    18    74 1   
    51    20    60 1   
    52    20    61 1   
    53    21    22 1   
    54    21    23 ar  
    55    22    62 1   
    56    22    63 1   
    57    25    26 ar  
    58    25    37 ar  
    59    26    64 1   
    60    28    65 1   
    61    29    72 2   
    62    30    72 2   
    63    31    32 1   
    64    31    72 1   
    65    32    33 1   
    66    32    66 1   
    67    32    67 1   
    68    33    34 1   
    69    33    68 1   
    70    33    69 1   
    71    35    70 1   
    72    36    71 1   
    73    37    73 1   
    74    50    73 1   
    75    51    73 1   
    76    52    73 1   
    77    56    74 1   
    78    57    74 1   
@<TRIPOS>SUBSTRUCTURE
     1 J6M         1 TEMP              0 ****  ****    0 ROOT
