@<TRIPOS>MOLECULE
J6M
   74    78     1     0     0
SMALL
No Charge or Current Charge


@<TRIPOS>ATOM
      1 N1         -12.8860   -32.6780     9.8030 nh         1 J6M      -0.823100
      2 N3          -9.9930   -27.5320    10.4240 nb         1 J6M      -0.273000
      3 C4         -11.9300   -31.6850     9.7980 cc         1 J6M       0.719300
      4 C5         -11.0640   -29.6380     9.8720 cd         1 J6M       0.269000
      5 C6         -11.1030   -28.1540     9.9580 ca         1 J6M       0.180000
      6 C7         -10.0330   -26.1960    10.4820 ca         1 J6M       0.400900
      7 C8         -11.1420   -25.4600    10.0840 ca         1 J6M      -0.376000
      8 C10         -9.9040   -30.3680     9.7180 cc         1 J6M      -0.236000
      9 C13        -12.0330   -36.1950    10.7380 cp         1 J6M      -0.054000
     10 C15        -11.0070   -36.4160    13.0490 ca         1 J6M      -0.124000
     11 C17        -11.1340   -38.4980    14.3100 ca         1 J6M      -0.304500
     12 C20         -6.7910   -40.2110    12.5560 c3         1 J6M       0.149100
     13 C21         -6.7470   -39.9190    15.0290 c6         1 J6M       0.167800
     14 C22         -8.1170   -39.1990    15.2400 c6         1 J6M       0.148300
     15 C24        -12.1440   -38.3350    12.0980 ca         1 J6M      -0.124000
     16 C26        -12.3280   -36.0540     8.3040 ca         1 J6M      -0.113000
     17 C1         -16.2420   -31.7760    11.5710 c3         1 J6M      -0.086100
     18 C3         -14.3150   -32.3170     9.9550 c3         1 J6M       0.245800
     19 N2         -12.2280   -30.4030     9.9070 nd         1 J6M      -0.690000
     20 N4          -8.9220   -25.5820    10.9500 nv         1 J6M      -1.069900
     21 C9         -12.2290   -26.1870     9.6130 ca         1 J6M       0.400900
     22 N5         -13.3570   -25.5640     9.2000 nv         1 J6M      -1.069900
     23 N6         -12.2290   -27.5230     9.5410 nb         1 J6M      -0.273000
     24 S1         -10.2340   -32.0730     9.6350 ss         1 J6M      -0.113400
     25 C11        -12.6100   -34.0520     9.6630 ca         1 J6M       0.257000
     26 C12        -12.3200   -34.8100    10.8110 ca         1 J6M      -0.080000
     27 C14        -11.7250   -36.9880    11.9700 cp         1 J6M       0.024000
     28 C16        -10.7150   -37.1570    14.2060 ca         1 J6M      -0.017500
     29 O1         -11.7020   -40.5690    15.9190 o          1 J6M      -0.533000
     30 O2         -10.5040   -38.5530    16.9180 o          1 J6M      -0.533000
     31 N7          -9.2440   -40.1660    15.4100 n3         1 J6M      -0.702500
     32 C18         -9.2710   -41.1420    14.2790 c6         1 J6M       0.148300
     33 C19         -7.8940   -41.8490    14.0750 c6         1 J6M       0.167800
     34 N8          -6.7710   -40.8780    13.8810 n3         1 J6M      -0.710600
     35 C23        -11.8570   -39.0830    13.2520 ca         1 J6M      -0.017500
     36 C25        -12.0450   -36.8010     9.4590 ca         1 J6M      -0.083000
     37 C27        -12.6100   -34.6770     8.3940 ca         1 J6M      -0.047300
     38 H1         -11.1590   -24.3770    10.1360 ha         1 J6M       0.124000
     39 H2          -8.8850   -30.0090     9.6500 h4         1 J6M       0.173000
     40 H3         -10.6580   -35.3890    12.9850 ha         1 J6M       0.122500
     41 H4          -5.9200   -39.5520    12.4440 h1         1 J6M       0.032033
     42 H5          -6.7540   -40.9560    11.7500 h1         1 J6M       0.032033
     43 H6          -7.6970   -39.6060    12.4200 h1         1 J6M       0.032033
     44 H7          -6.5000   -40.4560    15.9560 h1         1 J6M       0.064700
     45 H8          -5.9610   -39.1630    14.8870 h1         1 J6M       0.064700
     46 H9          -8.3030   -38.5390    14.3810 h1         1 J6M       0.058200
     47 H10         -8.0260   -38.5520    16.1240 h1         1 J6M       0.058200
     48 H11        -12.7110   -38.8040    11.2980 ha         1 J6M       0.122500
     49 H12        -12.3220   -36.5490     7.3350 ha         1 J6M       0.120000
     50 H13        -13.9250   -33.4890     7.1320 hc         1 J6M       0.051367
     51 H14        -12.2160   -33.0370     7.0190 hc         1 J6M       0.051367
     52 H15        -12.7980   -34.5030     6.2220 hc         1 J6M       0.051367
     53 H16        -16.5070   -31.6690    12.6300 hc         1 J6M       0.033367
     54 H17        -16.4550   -30.8260    11.0660 hc         1 J6M       0.033367
     55 H18        -16.8820   -32.5530    11.1340 hc         1 J6M       0.033367
     56 H19        -14.5660   -33.0840    11.9670 hc         1 J6M       0.051200
     57 H20        -14.1430   -31.3740    11.9010 hc         1 J6M       0.051200
     58 H21        -14.5410   -31.3960     9.4000 h1         1 J6M       0.057200
     59 H22        -14.9390   -33.0990     9.4990 h1         1 J6M       0.057200
     60 H23         -8.0690   -26.1290    11.0350 hn         1 J6M       0.484250
     61 H24         -8.8140   -24.5820    10.8030 hn         1 J6M       0.484250
     62 H25        -14.1930   -26.1260     9.0620 hn         1 J6M       0.484250
     63 H26        -13.4970   -24.5870     9.4460 hn         1 J6M       0.484250
     64 H27        -12.3310   -34.3120    11.7760 ha         1 J6M       0.131000
     65 H28        -10.1570   -36.6870    15.0150 ha         1 J6M       0.135500
     66 H29         -9.5500   -40.6390    13.3420 h1         1 J6M       0.058200
     67 H30        -10.0270   -41.9210    14.4580 h1         1 J6M       0.058200
     68 H31         -7.6970   -42.4720    14.9600 h1         1 J6M       0.064700
     69 H32         -7.9640   -42.5370    13.2190 h1         1 J6M       0.064700
     70 H34        -12.1970   -40.1160    13.3170 ha         1 J6M       0.135500
     71 H35        -11.8170   -37.8590     9.3560 ha         1 J6M       0.117000
     72 S2         -10.7520   -39.4580    15.7890 sy         1 J6M       1.147600
     73 C28        -12.9030   -33.8850     7.1220 c3         1 J6M      -0.050800
     74 C2         -14.7540   -32.1500    11.4250 c3         1 J6M      -0.099400
@<TRIPOS>BOND
     1     1     3 1   
     2     1    18 1   
     3     1    25 1   
     4     2     5 ar  
     5     2     6 ar  
     6     3    19 2   
     7     3    24 1   
     8     4     5 1   
     9     4     8 2   
    10     4    19 1   
    11     5    23 ar  
    12     6     7 ar  
    13     6    20 1   
    14     7    21 ar  
    15     7    38 1   
    16     8    24 1   
    17     8    39 1   
    18     9    26 ar  
    19     9    27 1   
    20     9    36 ar  
    21    10    27 ar  
    22    10    28 ar  
    23    10    40 1   
    24    11    28 ar  
    25    11    35 ar  
    26    11    72 1   
    27    12    34 1   
    28    12    41 1   
    29    12    42 1   
    30    12    43 1   
    31    13    14 1   
    32    13    34 1   
    33    13    44 1   
    34    13    45 1   
    35    14    31 1   
    36    14    46 1   
    37    14    47 1   
    38    15    27 ar  
    39    15    35 ar  
    40    15    48 1   
    41    16    36 ar  
    42    16    37 ar  
    43    16    49 1   
    44    17    53 1   
    45    17    54 1   
    46    17    55 1   
    47    17    74 1   
    48    18    58 1   
    49    18    59 1   
    50    18    74 1   
    51    20    60 1   
    52    20    61 1   
    53    21    22 1   
    54    21    23 ar  
    55    22    62 1   
    56    22    63 1   
    57    25    26 ar  
    58    25    37 ar  
    59    26    64 1   
    60    28    65 1   
    61    29    72 2   
    62    30    72 2   
    63    31    32 1   
    64    31    72 1   
    65    32    33 1   
    66    32    66 1   
    67    32    67 1   
    68    33    34 1   
    69    33    68 1   
    70    33    69 1   
    71    35    70 1   
    72    36    71 1   
    73    37    73 1   
    74    50    73 1   
    75    51    73 1   
    76    52    73 1   
    77    56    74 1   
    78    57    74 1   
@<TRIPOS>SUBSTRUCTURE
     1 J6M         1 TEMP              0 ****  ****    0 ROOT
