@<TRIPOS>MOLECULE
J6N
   35    37     1     0     0
SMALL
No Charge or Current Charge


@<TRIPOS>ATOM
      1 N3          -4.5680     1.8980    -0.9960 nc         1 J6N      -0.197400
      2 C5          -2.7610     0.6690    -0.8620 ca         1 J6N       0.017400
      3 C6          -1.6910    -0.1950    -1.1350 ca         1 J6N      -0.025000
      4 C7          -0.7520    -0.4550    -0.1060 ca         1 J6N      -0.044300
      5 C8          -0.9150     0.1640     1.1630 ca         1 J6N      -0.043000
      6 C10         -2.9000     1.2480     0.3560 ca         1 J6N      -0.084200
      7 C13          0.3710    -2.6890     0.4660 c3         1 J6N      -0.207400
      8 C20          4.1350     0.9020     0.0250 ca         1 J6N       0.106000
      9 C22          3.3800     0.9630    -1.1560 ca         1 J6N      -0.111000
     10 N2          -4.0250     2.0130     0.2750 na         1 J6N       0.058600
     11 N4          -3.7930     1.0710    -1.7010 nd         1 J6N      -0.229400
     12 C9          -2.0030     1.0290     1.4080 ca         1 J6N      -0.135000
     13 C11          0.4380    -1.3800    -0.3730 c3         1 J6N       0.035900
     14 O15         -0.5770    -4.3280    -0.9590 o          1 J6N      -0.731000
     15 O16         -1.8710    -3.4690     0.5330 o          1 J6N      -0.731000
     16 C17          1.7490    -0.5970    -0.2070 ca         1 J6N      -0.043300
     17 C18          2.5160    -0.6450     0.9810 ca         1 J6N      -0.101000
     18 C19          3.7030     0.1000     1.0930 ca         1 J6N      -0.111000
     19 C23          2.1920     0.2190    -1.2700 ca         1 J6N      -0.101000
     20 H27         -1.5930    -0.6490    -2.1180 ha         1 J6N       0.132000
     21 H28         -0.1970    -0.0240     1.9570 ha         1 J6N       0.122000
     22 H31          1.3240    -3.2000     0.2800 hc         1 J6N       0.025200
     23 H30          0.2210    -2.4030     1.5140 hc         1 J6N       0.025200
     24 H34          3.7130     1.5870    -1.9810 ha         1 J6N       0.116500
     25 H24         -4.8320     2.1960     2.2110 h1         1 J6N       0.050367
     26 H25         -3.8480     3.5870     1.6630 h1         1 J6N       0.050367
     27 H26         -5.4940     3.3410     1.0060 h1         1 J6N       0.050367
     28 H29         -2.1330     1.5060     2.3770 ha         1 J6N       0.111000
     29 H12          0.3990    -1.7000    -1.4230 hc         1 J6N       0.081700
     30 H32          2.1990    -1.2510     1.8250 ha         1 J6N       0.120500
     31 H33          4.2870     0.0580     2.0090 ha         1 J6N       0.116500
     32 H35          1.6130     0.2790    -2.1880 ha         1 J6N       0.120500
     33 C1          -4.5850     2.8360     1.3550 c3         1 J6N       0.080900
     34 Cl           5.6190     1.8330     0.1690 cl         1 J6N      -0.241000
     35 C14         -0.7870    -3.5760    -0.0190 c          1 J6N       0.717000
@<TRIPOS>BOND
     1     1    10 1   
     2     1    11 2   
     3     2     3 ar  
     4     2     6 ar  
     5     2    11 1   
     6     3     4 ar  
     7     3    20 1   
     8     4     5 ar  
     9     4    13 1   
    10     5    12 ar  
    11     5    21 1   
    12     6    10 1   
    13     6    12 ar  
    14     7    13 1   
    15     7    22 1   
    16     7    23 1   
    17     7    35 1   
    18     8     9 ar  
    19     8    18 ar  
    20     8    34 1   
    21     9    19 ar  
    22     9    24 1   
    23    10    33 1   
    24    12    28 1   
    25    13    16 1   
    26    13    29 1   
    27    14    35 1   
    28    15    35 1   
    29    16    17 ar  
    30    16    19 ar  
    31    17    18 ar  
    32    17    30 1   
    33    18    31 1   
    34    19    32 1   
    35    25    33 1   
    36    26    33 1   
    37    27    33 1   
@<TRIPOS>SUBSTRUCTURE
     1 J6N         1 TEMP              0 ****  ****    0 ROOT
