@<TRIPOS>MOLECULE
J6N
   35    37     1     0     0
SMALL
abcg2


@<TRIPOS>ATOM
      1 N3          -4.1570     2.3220    -0.9660 nc         1 J6N      -0.197400
      2 C5          -2.5010     0.9640    -0.8810 ca         1 J6N       0.017400
      3 C6          -1.4420     0.0970    -1.1670 ca         1 J6N      -0.025000
      4 C7          -0.7580    -0.4690    -0.1120 ca         1 J6N      -0.044300
      5 C8          -1.1450    -0.1690     1.2180 ca         1 J6N      -0.043000
      6 C10         -2.8570     1.2430     0.4380 ca         1 J6N      -0.084200
      7 C13          0.4350    -2.6340     0.4750 c3         1 J6N      -0.207400
      8 C20          4.0610     0.9210    -0.1470 ca         1 J6N       0.106000
      9 C22          3.5160     0.6170    -1.3830 ca         1 J6N      -0.111000
     10 N2          -3.8990     2.0990     0.3160 na         1 J6N       0.058600
     11 N4          -3.3430     1.6600    -1.6990 nd         1 J6N      -0.229400
     12 C9          -2.1850     0.6780     1.5230 ca         1 J6N      -0.135000
     13 C11          0.4280    -1.3740    -0.3870 c3         1 J6N       0.035900
     14 O15         -1.3270    -3.5160    -0.8600 o          1 J6N      -0.731000
     15 O16         -1.1410    -4.2360     1.2400 o          1 J6N      -0.731000
     16 C17          1.7130    -0.5800    -0.2810 ca         1 J6N      -0.043300
     17 C18          2.2900    -0.2590     0.9460 ca         1 J6N      -0.101000
     18 C19          3.4570     0.4870     1.0230 ca         1 J6N      -0.111000
     19 C23          2.3470    -0.1290    -1.4360 ca         1 J6N      -0.101000
     20 H27         -1.1680    -0.1220    -2.1910 ha         1 J6N       0.132000
     21 H28         -0.6090    -0.6270     2.0390 ha         1 J6N       0.122000
     22 H31          1.3250    -3.2190     0.2130 hc         1 J6N       0.025200
     23 H30          0.5470    -2.4000     1.5360 hc         1 J6N       0.025200
     24 H34          3.9930     0.9500    -2.2950 ha         1 J6N       0.116500
     25 H24         -5.2010     1.9680     1.9450 h1         1 J6N       0.050367
     26 H25         -4.0250     3.2950     2.0200 h1         1 J6N       0.050367
     27 H26         -5.3970     3.3880     0.9020 h1         1 J6N       0.050367
     28 H29         -2.4620     0.8840     2.5480 ha         1 J6N       0.111000
     29 H12          0.3360    -1.7040    -1.4240 hc         1 J6N       0.081700
     30 H32          1.8380    -0.5950     1.8710 ha         1 J6N       0.120500
     31 H33          3.8890     0.7220     1.9860 ha         1 J6N       0.116500
     32 H35          1.9240    -0.3650    -2.4050 ha         1 J6N       0.120500
     33 C1          -4.6740     2.7210     1.3610 c3         1 J6N       0.080900
     34 CL           5.5230     1.8530    -0.0590 cl         1 J6N      -0.241000
     35 C14         -0.7980    -3.5330     0.2680 c          1 J6N       0.717000
@<TRIPOS>BOND
     1     1    10 1   
     2     1    11 2   
     3     2     3 ar  
     4     2     6 ar  
     5     2    11 1   
     6     3     4 ar  
     7     3    20 1   
     8     4     5 ar  
     9     4    13 1   
    10     5    12 ar  
    11     5    21 1   
    12     6    10 1   
    13     6    12 ar  
    14     7    13 1   
    15     7    22 1   
    16     7    23 1   
    17     7    35 1   
    18     8     9 ar  
    19     8    18 ar  
    20     8    34 1   
    21     9    19 ar  
    22     9    24 1   
    23    10    33 1   
    24    12    28 1   
    25    13    16 1   
    26    13    29 1   
    27    14    35 1   
    28    15    35 1   
    29    16    17 ar  
    30    16    19 ar  
    31    17    18 ar  
    32    17    30 1   
    33    18    31 1   
    34    19    32 1   
    35    25    33 1   
    36    26    33 1   
    37    27    33 1   
@<TRIPOS>SUBSTRUCTURE
     1 J6N         1 TEMP              0 ****  ****    0 ROOT
