@<TRIPOS>MOLECULE
J6O
   53    56     1     0     0
SMALL
bcc


@<TRIPOS>ATOM
      1 C4          16.5130     6.3960   -31.8730 ca         1 J6O       0.041100
      2 C5          15.8280     6.0540   -33.0220 ca         1 J6O      -0.135000
      3 C6          16.4820     5.4640   -34.1030 ca         1 J6O      -0.076800
      4 C7          15.6940     5.0180   -35.2540 cc         1 J6O       0.204900
      5 C8          14.5590     4.2790   -35.1760 cd         1 J6O      -0.069100
      6 C10         14.4330     4.3410   -37.6090 ca         1 J6O      -0.378600
      7 C13         15.6680     5.1370   -39.9770 ca         1 J6O       0.244100
      8 C15         15.6390     5.0430   -37.6030 ca         1 J6O       0.245100
      9 C17         13.0670     4.1510   -31.8890 c6         1 J6O       0.110100
     10 C20         11.3620     5.9530   -33.5220 c6         1 J6O       0.168100
     11 C21         11.3240     7.4290   -33.9010 c3         1 J6O       0.153400
     12 C1          17.8610     5.2910   -34.0510 ca         1 J6O      -0.080000
     13 C11         13.8450     4.0340   -38.8620 ca         1 J6O       0.282100
     14 C12         14.4600     4.4340   -40.0320 ca         1 J6O      -0.266000
     15 C14         16.2730     5.4480   -38.7630 ca         1 J6O      -0.318000
     16 C16         12.9380     4.2160   -33.4170 c6         1 J6O       0.361900
     17 C18         12.2820     5.3030   -31.2450 c6         1 J6O       0.088100
     18 C19         11.0200     5.6110   -32.0480 c6         1 J6O       0.084100
     19 C2          18.5600     5.6610   -32.9100 ca         1 J6O      -0.157000
     20 C3          17.9020     6.1990   -31.8120 ca         1 J6O       0.139100
     21 C9          13.8320     3.9110   -36.3700 c          1 J6O       0.603900
     22 O1          12.7780     3.2600   -36.3270 o          1 J6O      -0.595100
     23 O10         12.5660     2.8980   -31.4990 oh         1 J6O      -0.579800
     24 O11         15.9120     6.9220   -30.7860 oh         1 J6O      -0.534100
     25 O12         18.6090     6.5180   -30.7150 oh         1 J6O      -0.491100
     26 O2          16.2310     5.3640   -36.4360 os         1 J6O      -0.202200
     27 O3          16.2040     5.4930   -41.1480 oh         1 J6O      -0.479100
     28 O4          12.7000     3.3630   -38.9200 oh         1 J6O      -0.497100
     29 O5          14.1650     3.8030   -33.9690 os         1 J6O      -0.300900
     30 O6          12.6740     5.5120   -33.8380 os         1 J6O      -0.433600
     31 O7           9.9890     7.7980   -34.1390 oh         1 J6O      -0.589800
     32 O8          10.3050     6.6750   -31.4680 oh         1 J6O      -0.581800
     33 O9          13.1180     6.4410   -31.1450 oh         1 J6O      -0.618800
     34 H1          14.7710     6.2660   -33.0780 ha         1 J6O       0.164000
     35 H3          10.6530     5.4260   -34.1750 h1         1 J6O       0.071700
     36 H4          11.7960     8.0430   -33.1250 h1         1 J6O       0.034200
     37 H5          11.9330     7.5400   -34.8080 h1         1 J6O       0.034200
     38 H6          18.3970     4.8400   -34.8760 ha         1 J6O       0.144000
     39 H7          14.0110     4.2030   -40.9900 ha         1 J6O       0.170000
     40 H8          17.2090     5.9920   -38.7190 ha         1 J6O       0.156000
     41 H9          12.1300     3.5420   -33.7450 h2         1 J6O       0.076700
     42 H10         11.9760     4.9790   -30.2390 h1         1 J6O       0.034700
     43 H11         10.4180     4.6930   -32.0450 h1         1 J6O       0.058700
     44 H12         19.6310     5.5100   -32.8580 ha         1 J6O       0.151000
     45 H13         12.7850     2.7510   -30.5730 ho         1 J6O       0.412000
     46 H14         14.9490     6.7660   -30.8280 ho         1 J6O       0.462000
     47 H15         18.0210     6.8340   -30.0170 ho         1 J6O       0.446000
     48 H16         17.0310     5.9730   -41.0190 ho         1 J6O       0.436000
     49 H17         12.4280     3.1530   -37.9950 ho         1 J6O       0.485000
     50 H18          9.9670     8.7450   -34.3020 ho         1 J6O       0.410000
     51 H19          9.8980     6.3560   -30.6550 ho         1 J6O       0.408000
     52 H20         12.5820     7.1830   -30.8370 ho         1 J6O       0.431000
     53 H2          14.1230     4.2650   -31.6110 h1         1 J6O       0.074700
@<TRIPOS>BOND
     1     1     2 ar  
     2     1    20 ar  
     3     1    24 1   
     4     2     3 ar  
     5     2    34 1   
     6     3     4 1   
     7     3    12 ar  
     8     4     5 2   
     9     4    26 1   
    10     5    21 1   
    11     5    29 1   
    12     6     8 ar  
    13     6    13 ar  
    14     6    21 1   
    15     7    14 ar  
    16     7    15 ar  
    17     7    27 1   
    18     8    15 ar  
    19     8    26 1   
    20     9    16 1   
    21     9    17 1   
    22     9    23 1   
    23     9    53 1   
    24    10    11 1   
    25    10    18 1   
    26    10    30 1   
    27    10    35 1   
    28    11    31 1   
    29    11    36 1   
    30    11    37 1   
    31    12    19 ar  
    32    12    38 1   
    33    13    14 ar  
    34    13    28 1   
    35    14    39 1   
    36    15    40 1   
    37    16    29 1   
    38    16    30 1   
    39    16    41 1   
    40    17    18 1   
    41    17    33 1   
    42    17    42 1   
    43    18    32 1   
    44    18    43 1   
    45    19    20 ar  
    46    19    44 1   
    47    20    25 1   
    48    21    22 2   
    49    23    45 1   
    50    24    46 1   
    51    25    47 1   
    52    27    48 1   
    53    28    49 1   
    54    31    50 1   
    55    32    51 1   
    56    33    52 1   
@<TRIPOS>SUBSTRUCTURE
     1 J6O         1 TEMP              0 ****  ****    0 ROOT
