@<TRIPOS>MOLECULE
J6O
   53    56     1     0     0
SMALL
No Charge or Current Charge


@<TRIPOS>ATOM
      1 C4          16.8830     6.5080   -31.8580 ca         1 J6O       0.041100
      2 C5          16.2110     6.2040   -33.0470 ca         1 J6O      -0.117000
      3 C6          16.8350     5.4520   -34.0610 ca         1 J6O      -0.076800
      4 C7          16.0670     5.0200   -35.2390 cc         1 J6O       0.204900
      5 C8          14.8090     4.4370   -35.1050 cd         1 J6O      -0.069100
      6 C10         14.6040     4.5710   -37.5850 ca         1 J6O      -0.378600
      7 C13         15.7950     5.4880   -39.9490 ca         1 J6O       0.244100
      8 C15         15.9300     5.0240   -37.5690 ca         1 J6O       0.245100
      9 C17         12.7900     3.9340   -31.9090 c6         1 J6O       0.133300
     10 C20         10.9400     5.5090   -33.3040 c6         1 J6O       0.191300
     11 C21         10.1320     6.5320   -34.1680 c3         1 J6O       0.176600
     12 C1          18.1940     5.1030   -33.9110 ca         1 J6O      -0.062000
     13 C11         13.8790     4.5860   -38.7880 ca         1 J6O       0.282100
     14 C12         14.4710     5.0500   -39.9640 ca         1 J6O      -0.248000
     15 C14         16.5260     5.4650   -38.7590 ca         1 J6O      -0.300000
     16 C16         12.9300     4.1120   -33.4780 c6         1 J6O       0.408300
     17 C18         12.4500     5.2920   -31.1960 c6         1 J6O       0.111300
     18 C19         11.1710     5.9600   -31.8130 c6         1 J6O       0.107300
     19 C2          18.8970     5.4660   -32.7460 ca         1 J6O      -0.139000
     20 C3          18.2380     6.1530   -31.7130 ca         1 J6O       0.139100
     21 C9          14.0150     4.0990   -36.3120 c          1 J6O       0.603900
     22 O1          12.9460     3.4950   -36.3130 o          1 J6O      -0.595100
     23 O10         11.7310     2.9900   -31.6010 oh         1 J6O      -0.702000
     24 O11         16.1930     7.0960   -30.8310 oh         1 J6O      -0.573100
     25 O12         18.8950     6.4600   -30.5580 oh         1 J6O      -0.530100
     26 O2          16.7360     4.9650   -36.4480 os         1 J6O      -0.202200
     27 O3          16.3730     5.9260   -41.0980 oh         1 J6O      -0.518100
     28 O4          12.5960     4.1470   -38.8280 oh         1 J6O      -0.536100
     29 O5          14.3220     4.2920   -33.8110 os         1 J6O      -0.324100
     30 O6          12.2020     5.2760   -33.9640 os         1 J6O      -0.480000
     31 O7           8.9000     6.9450   -33.5440 oh         1 J6O      -0.712000
     32 O8          11.2840     7.4010   -31.6710 oh         1 J6O      -0.704000
     33 O9          13.5130     6.2520   -31.2720 oh         1 J6O      -0.681000
     34 H1          15.1800     6.5210   -33.1760 ha         1 J6O       0.146000
     35 H3          10.3690     4.5680   -33.3060 h1         1 J6O       0.071700
     36 H4          10.7680     7.4070   -34.3610 h1         1 J6O       0.034200
     37 H5           9.9240     6.0610   -35.1380 h1         1 J6O       0.034200
     38 H6          18.7020     4.5350   -34.6880 ha         1 J6O       0.126000
     39 H7          13.9050     5.0610   -40.8910 ha         1 J6O       0.152000
     40 H8          17.5630     5.7890   -38.7430 ha         1 J6O       0.138000
     41 H9          12.5500     3.1990   -33.9580 h2         1 J6O       0.076700
     42 H10         12.2440     5.0830   -30.1350 h1         1 J6O       0.034700
     43 H11         10.3000     5.6070   -31.2390 h1         1 J6O       0.058700
     44 H12         19.9420     5.1880   -32.6320 ha         1 J6O       0.133000
     45 H13         11.8840     2.6670   -30.6810 ho         1 J6O       0.511000
     46 H14         15.2330     6.8600   -30.9440 ho         1 J6O       0.501000
     47 H15         18.2360     6.9180   -29.9890 ho         1 J6O       0.485000
     48 H16         17.2950     6.1860   -40.8930 ho         1 J6O       0.475000
     49 H17         12.4160     3.7960   -37.9180 ho         1 J6O       0.524000
     50 H18          8.3750     7.4230   -34.2300 ho         1 J6O       0.509000
     51 H19         10.4290     7.7700   -32.0050 ho         1 J6O       0.507000
     52 H20         12.9780     7.0700   -31.4620 ho         1 J6O       0.470000
     53 H2          13.7490     3.5610   -31.5200 h1         1 J6O       0.074700
@<TRIPOS>BOND
     1     1     2 ar  
     2     1    20 ar  
     3     1    24 1   
     4     2     3 ar  
     5     2    34 1   
     6     3     4 1   
     7     3    12 ar  
     8     4     5 2   
     9     4    26 1   
    10     5    21 1   
    11     5    29 1   
    12     6     8 ar  
    13     6    13 ar  
    14     6    21 1   
    15     7    14 ar  
    16     7    15 ar  
    17     7    27 1   
    18     8    15 ar  
    19     8    26 1   
    20     9    16 1   
    21     9    17 1   
    22     9    23 1   
    23     9    53 1   
    24    10    11 1   
    25    10    18 1   
    26    10    30 1   
    27    10    35 1   
    28    11    31 1   
    29    11    36 1   
    30    11    37 1   
    31    12    19 ar  
    32    12    38 1   
    33    13    14 ar  
    34    13    28 1   
    35    14    39 1   
    36    15    40 1   
    37    16    29 1   
    38    16    30 1   
    39    16    41 1   
    40    17    18 1   
    41    17    33 1   
    42    17    42 1   
    43    18    32 1   
    44    18    43 1   
    45    19    20 ar  
    46    19    44 1   
    47    20    25 1   
    48    21    22 2   
    49    23    45 1   
    50    24    46 1   
    51    25    47 1   
    52    27    48 1   
    53    28    49 1   
    54    31    50 1   
    55    32    51 1   
    56    33    52 1   
@<TRIPOS>SUBSTRUCTURE
     1 J6O         1 TEMP              0 ****  ****    0 ROOT
