@<TRIPOS>MOLECULE
J6P
   50    55     1     0     0
SMALL
abcg2


@<TRIPOS>ATOM
      1 C02         -4.6350     0.3600    -0.2560 ca         1 J6P       0.137000
      2 C03         -3.7670     1.4330    -0.1890 ca         1 J6P      -0.114000
      3 C04         -2.4280     1.1590     0.0550 ca         1 J6P      -0.039200
      4 C06         -0.2230     1.2620     0.4000 cc         1 J6P      -0.037300
      5 C07         -0.5440    -0.0640     0.4500 cd         1 J6P      -0.141400
      6 C08          0.4370    -1.1510     0.7070 c6         1 J6P      -0.001200
      7 C09          1.8490    -0.6640     0.4120 c6         1 J6P       0.116400
      8 C10          2.1070     0.7460     1.0050 c6         1 J6P      -0.046700
      9 C11          3.6050     1.0680     0.8050 c6         1 J6P      -0.056400
     10 C12          4.2680    -0.0580     0.0150 c5         1 J6P       0.107200
     11 C13          4.1160    -1.3380     0.8350 c          1 J6P       0.538000
     12 C16          5.6890     0.2010    -0.4450 c5         1 J6P      -0.055400
     13 C17          5.8310    -0.6040    -1.7470 c5         1 J6P      -0.079400
     14 C18          4.3970    -1.0000    -2.1360 c5         1 J6P       0.167800
     15 C20          2.1830    -0.7100    -1.0810 c6         1 J6P       0.164800
     16 C21          1.1380     1.8730     0.5450 c6         1 J6P       0.024200
     17 C22          1.1160     2.9440     1.6480 c3         1 J6P      -0.087100
     18 C23          1.5140     2.5700    -0.7760 c3         1 J6P      -0.087100
     19 C24         -1.9520    -0.1590     0.2320 ca         1 J6P      -0.083800
     20 C25         -2.8470    -1.2250     0.1600 ca         1 J6P      -0.048000
     21 C26         -4.1790    -0.9580    -0.0850 ca         1 J6P       0.091000
     22 N05         -1.3590     1.9960     0.1630 na         1 J6P      -0.211700
     23 N14          2.8080    -1.5560     1.0560 ns         1 J6P      -0.512900
     24 N19          3.5430    -0.2270    -1.2500 n3         1 J6P      -0.732600
     25 O15          5.0210    -2.0620     1.2240 o          1 J6P      -0.552000
     26 CL1         -6.3080     0.6620    -0.5610 cl         1 J6P      -0.178000
     27 CL2         -5.2970    -2.2750    -0.1800 cl         1 J6P      -0.183000
     28 H1          -4.1260     2.4450    -0.3250 ha         1 J6P       0.133000
     29 H2           0.3790    -1.4750     1.7520 hc         1 J6P       0.057700
     30 H3           0.2100    -2.0350     0.1020 hc         1 J6P       0.057700
     31 H4           1.9240     0.6250     2.0770 hc         1 J6P       0.061700
     32 H5           3.7550     1.9890     0.2430 hc         1 J6P       0.059200
     33 H6           4.1080     1.2030     1.7650 hc         1 J6P       0.059200
     34 H7           5.8080     1.2690    -0.6400 hc         1 J6P       0.059700
     35 H8           6.4240    -0.0740     0.3110 hc         1 J6P       0.059700
     36 H9           6.3110    -0.0090    -2.5230 hc         1 J6P       0.051700
     37 H10          6.4460    -1.4920    -1.6040 hc         1 J6P       0.051700
     38 H11          4.1670    -0.7760    -3.1800 h1         1 J6P       0.039700
     39 H12          4.2490    -2.0830    -2.0050 h1         1 J6P       0.039700
     40 H13          2.0810    -1.7530    -1.4120 h1         1 J6P       0.053700
     41 H14          1.4740    -0.1240    -1.6700 h1         1 J6P       0.053700
     42 H15          0.7350     2.5440     2.5880 hc         1 J6P       0.041533
     43 H16          2.1240     3.3220     1.8290 hc         1 J6P       0.041533
     44 H17          0.5000     3.8000     1.3690 hc         1 J6P       0.041533
     45 H18          0.7210     3.2560    -1.0750 hc         1 J6P       0.041533
     46 H19          2.4170     3.1700    -0.6680 hc         1 J6P       0.041533
     47 H20          1.6670     1.8710    -1.5950 hc         1 J6P       0.041533
     48 H21         -2.5140    -2.2470     0.2900 ha         1 J6P       0.133000
     49 H22         -1.4050     2.9990     0.0870 hn         1 J6P       0.355000
     50 H23          2.4980    -2.4060     1.5060 hn         1 J6P       0.321500
@<TRIPOS>BOND
     1     1     2 ar  
     2     1    21 ar  
     3     1    26 1   
     4     2     3 ar  
     5     2    28 1   
     6     3    19 ar  
     7     3    22 1   
     8     4     5 2   
     9     4    16 1   
    10     4    22 1   
    11     5     6 1   
    12     5    19 1   
    13     6     7 1   
    14     6    29 1   
    15     6    30 1   
    16     7     8 1   
    17     7    15 1   
    18     7    23 1   
    19     8     9 1   
    20     8    16 1   
    21     8    31 1   
    22     9    10 1   
    23     9    32 1   
    24     9    33 1   
    25    10    11 1   
    26    10    12 1   
    27    10    24 1   
    28    11    23 1   
    29    11    25 2   
    30    12    13 1   
    31    12    34 1   
    32    12    35 1   
    33    13    14 1   
    34    13    36 1   
    35    13    37 1   
    36    14    24 1   
    37    14    38 1   
    38    14    39 1   
    39    15    24 1   
    40    15    40 1   
    41    15    41 1   
    42    16    17 1   
    43    16    18 1   
    44    17    42 1   
    45    17    43 1   
    46    17    44 1   
    47    18    45 1   
    48    18    46 1   
    49    18    47 1   
    50    19    20 ar  
    51    20    21 ar  
    52    20    48 1   
    53    21    27 1   
    54    22    49 1   
    55    23    50 1   
@<TRIPOS>SUBSTRUCTURE
     1 J6P         1 TEMP              0 ****  ****    0 ROOT
