@<TRIPOS>MOLECULE
J6P
   50    55     1     0     0
SMALL
No Charge or Current Charge


@<TRIPOS>ATOM
      1 C02         -4.7910     0.3610    -0.1230 ca         1 J6P       0.137000
      2 C03         -3.8990     1.4540    -0.0650 ca         1 J6P      -0.114000
      3 C04         -2.5380     1.1780     0.1110 ca         1 J6P      -0.039200
      4 C06         -0.2720     1.3380     0.3810 cc         1 J6P      -0.037300
      5 C07         -0.6450    -0.0010     0.3900 cd         1 J6P      -0.141400
      6 C08          0.3440    -1.1260     0.5960 c6         1 J6P      -0.001200
      7 C09          1.8200    -0.6940     0.3710 c6         1 J6P       0.116400
      8 C10          2.1070     0.7560     0.9850 c6         1 J6P      -0.046700
      9 C11          3.6470     1.0650     0.7990 c6         1 J6P      -0.056400
     10 C12          4.3710    -0.1920     0.1070 c5         1 J6P       0.107200
     11 C13          4.0950    -1.5300     0.9590 c          1 J6P       0.538000
     12 C16          5.9040    -0.0630    -0.2880 c5         1 J6P      -0.055400
     13 C17          5.9060    -0.2120    -1.8410 c5         1 J6P      -0.079400
     14 C18          4.6230    -1.0340    -2.1010 c5         1 J6P       0.167800
     15 C20          2.2820    -0.8250    -1.1480 c6         1 J6P       0.164800
     16 C21          1.1330     1.9040     0.4910 c6         1 J6P       0.024200
     17 C22          1.1490     3.0730     1.5240 c3         1 J6P      -0.087100
     18 C23          1.4770     2.5390    -0.9010 c3         1 J6P      -0.087100
     19 C24         -2.0740    -0.1020     0.2230 ca         1 J6P      -0.083800
     20 C25         -2.9270    -1.2120     0.1710 ca         1 J6P      -0.048000
     21 C26         -4.3060    -0.9710    -0.0050 ca         1 J6P       0.091000
     22 N05         -1.4730     2.0560     0.2000 na         1 J6P      -0.211700
     23 N14          2.7220    -1.6220     1.1020 ns         1 J6P      -0.512900
     24 N19          3.6860    -0.2890    -1.2410 n3         1 J6P      -0.732600
     25 O15          4.8750    -2.3460     1.4310 o          1 J6P      -0.552000
     26 Cl1         -6.5120     0.6810    -0.3440 cl         1 J6P      -0.178000
     27 Cl2         -5.4080    -2.3480    -0.0760 cl         1 J6P      -0.183000
     28 H1          -4.2610     2.4750    -0.1530 ha         1 J6P       0.133000
     29 H2           0.2290    -1.4920     1.6250 hc         1 J6P       0.057700
     30 H3           0.1010    -1.9790    -0.0510 hc         1 J6P       0.057700
     31 H4           1.9340     0.6490     2.0660 hc         1 J6P       0.061700
     32 H5           3.8440     1.9670     0.2110 hc         1 J6P       0.059200
     33 H6           4.1050     1.2470     1.7800 hc         1 J6P       0.059200
     34 H7           6.3200     0.9020     0.0210 hc         1 J6P       0.059700
     35 H8           6.5230    -0.8350     0.1820 hc         1 J6P       0.059700
     36 H9           5.8490     0.7670    -2.3330 hc         1 J6P       0.051700
     37 H10          6.8060    -0.7130    -2.2150 hc         1 J6P       0.051700
     38 H11          4.3260    -1.0200    -3.1580 h1         1 J6P       0.039700
     39 H12          4.7360    -2.0800    -1.7800 h1         1 J6P       0.039700
     40 H13          2.2490    -1.8870    -1.4340 h1         1 J6P       0.053700
     41 H14          1.5970    -0.2960    -1.8220 h1         1 J6P       0.053700
     42 H15          0.8080     2.7360     2.5100 hc         1 J6P       0.041533
     43 H16          2.1570     3.4860     1.6460 hc         1 J6P       0.041533
     44 H17          0.4930     3.8970     1.2170 hc         1 J6P       0.041533
     45 H18          0.6960     3.2420    -1.2140 hc         1 J6P       0.041533
     46 H19          2.4080     3.1150    -0.8880 hc         1 J6P       0.041533
     47 H20          1.5580     1.7970    -1.6980 hc         1 J6P       0.041533
     48 H21         -2.5420    -2.2240     0.2630 ha         1 J6P       0.133000
     49 H22         -1.5460     3.0650     0.1390 hn         1 J6P       0.355000
     50 H23          2.3480    -2.4150     1.6080 hn         1 J6P       0.321500
@<TRIPOS>BOND
     1     1     2 ar  
     2     1    21 ar  
     3     1    26 1   
     4     2     3 ar  
     5     2    28 1   
     6     3    19 ar  
     7     3    22 1   
     8     4     5 2   
     9     4    16 1   
    10     4    22 1   
    11     5     6 1   
    12     5    19 1   
    13     6     7 1   
    14     6    29 1   
    15     6    30 1   
    16     7     8 1   
    17     7    15 1   
    18     7    23 1   
    19     8     9 1   
    20     8    16 1   
    21     8    31 1   
    22     9    10 1   
    23     9    32 1   
    24     9    33 1   
    25    10    11 1   
    26    10    12 1   
    27    10    24 1   
    28    11    23 1   
    29    11    25 2   
    30    12    13 1   
    31    12    34 1   
    32    12    35 1   
    33    13    14 1   
    34    13    36 1   
    35    13    37 1   
    36    14    24 1   
    37    14    38 1   
    38    14    39 1   
    39    15    24 1   
    40    15    40 1   
    41    15    41 1   
    42    16    17 1   
    43    16    18 1   
    44    17    42 1   
    45    17    43 1   
    46    17    44 1   
    47    18    45 1   
    48    18    46 1   
    49    18    47 1   
    50    19    20 ar  
    51    20    21 ar  
    52    20    48 1   
    53    21    27 1   
    54    22    49 1   
    55    23    50 1   
@<TRIPOS>SUBSTRUCTURE
     1 J6P         1 TEMP              0 ****  ****    0 ROOT
