@<TRIPOS>MOLECULE
J6Q
   38    40     1     0     0
SMALL
abcg2


@<TRIPOS>ATOM
      1 C1           2.8090    -2.5030    -1.7820 c3         1 J6Q      -0.036800
      2 C2           2.6130    -1.4160    -0.7700 ca         1 J6Q      -0.083300
      3 C3           1.6000    -0.4760    -0.9160 ca         1 J6Q      -0.108000
      4 C5           2.2190     0.6350     1.1030 ca         1 J6Q      -0.077000
      5 C6           3.2400    -0.2880     1.2850 ca         1 J6Q      -0.110000
      6 C7           3.4260    -1.2960     0.3560 ca         1 J6Q       0.109000
      7 C11          0.2240     2.7260     0.6720 c3         1 J6Q      -0.210400
      8 C12          1.4410     3.6570     0.5050 c          1 J6Q       0.715000
      9 C15         -1.0920     0.7660    -0.1380 ca         1 J6Q      -0.075300
     10 C16         -1.3800     0.0090     1.0270 ca         1 J6Q      -0.056000
     11 C23         -3.2460     0.1930    -0.9780 ca         1 J6Q       0.015400
     12 C24         -2.0250     0.8590    -1.1470 ca         1 J6Q      -0.045000
     13 C4           1.3800     0.5530    -0.0010 ca         1 J6Q      -0.023300
     14 CL8          4.7140    -2.4360     0.6090 cl         1 J6Q      -0.252000
     15 C9           0.2260     1.5040    -0.2420 c3         1 J6Q       0.036900
     16 O13          1.9600     3.7100    -0.6260 o          1 J6Q      -0.730000
     17 O14          1.7810     4.3110     1.5130 o          1 J6Q      -0.730000
     18 C17         -2.5710    -0.6520     1.2140 ca         1 J6Q      -0.133000
     19 C18         -3.5040    -0.5410     0.1790 ca         1 J6Q      -0.090200
     20 N19         -4.7500    -1.0270    -0.0210 na         1 J6Q       0.060600
     21 C20         -5.5420    -1.8550     0.8560 c3         1 J6Q       0.078900
     22 N21         -5.2150    -0.6230    -1.1960 nc         1 J6Q      -0.191400
     23 N22         -4.3410     0.1020    -1.7860 nd         1 J6Q      -0.228400
     24 H27          2.7090    -3.4920    -1.3320 hc         1 J6Q       0.037367
     25 H25          2.0730    -2.4220    -2.5800 hc         1 J6Q       0.037367
     26 H26          3.8000    -2.4560    -2.2340 hc         1 J6Q       0.037367
     27 H28          0.9480    -0.5540    -1.7800 ha         1 J6Q       0.108000
     28 H29          2.1020     1.4230     1.8350 ha         1 J6Q       0.151000
     29 H30          3.8900    -0.2160     2.1470 ha         1 J6Q       0.119000
     30 H32          0.1110     2.4300     1.7190 hc         1 J6Q       0.026200
     31 H31         -0.6720     3.3150     0.4420 hc         1 J6Q       0.026200
     32 H33         -0.6250    -0.0580     1.8020 ha         1 J6Q       0.125000
     33 H38         -1.8240     1.4310    -2.0450 ha         1 J6Q       0.137000
     34 H10          0.3190     1.8690    -1.2680 hc         1 J6Q       0.086700
     35 H34         -2.7650    -1.2250     2.1100 ha         1 J6Q       0.113000
     36 H36         -5.7620    -1.3280     1.7820 h1         1 J6Q       0.052367
     37 H35         -6.4720    -2.0970     0.3530 h1         1 J6Q       0.052367
     38 H37         -5.0090    -2.7760     1.0860 h1         1 J6Q       0.052367
@<TRIPOS>BOND
     1     1     2 1   
     2     1    24 1   
     3     1    25 1   
     4     1    26 1   
     5     2     3 ar  
     6     2     6 ar  
     7     3    13 ar  
     8     3    27 1   
     9     4     5 ar  
    10     4    13 ar  
    11     4    28 1   
    12     5     6 ar  
    13     5    29 1   
    14     6    14 1   
    15     7     8 1   
    16     7    15 1   
    17     7    30 1   
    18     7    31 1   
    19     8    16 1   
    20     8    17 1   
    21     9    10 ar  
    22     9    12 ar  
    23     9    15 1   
    24    10    18 ar  
    25    10    32 1   
    26    11    12 ar  
    27    11    19 ar  
    28    11    23 1   
    29    12    33 1   
    30    13    15 1   
    31    15    34 1   
    32    18    19 ar  
    33    18    35 1   
    34    19    20 1   
    35    20    21 1   
    36    20    22 1   
    37    21    36 1   
    38    21    37 1   
    39    21    38 1   
    40    22    23 2   
@<TRIPOS>SUBSTRUCTURE
     1 J6Q         1 TEMP              0 ****  ****    0 ROOT
