@<TRIPOS>MOLECULE
J6Q
   38    40     1     0     0
SMALL
No Charge or Current Charge


@<TRIPOS>ATOM
      1 C1           3.9090    -1.4350    -2.2300 c3         1 J6Q      -0.036800
      2 C2           3.0480    -1.0590    -1.0290 ca         1 J6Q      -0.083300
      3 C3           2.0480    -0.0750    -1.1650 ca         1 J6Q      -0.108000
      4 C5           1.4340    -0.3440     1.1720 ca         1 J6Q      -0.077000
      5 C6           2.4280    -1.3250     1.3170 ca         1 J6Q      -0.110000
      6 C7           3.2340    -1.6830     0.2240 ca         1 J6Q       0.109000
      7 C11          0.4230     2.6320     0.5990 c3         1 J6Q      -0.210400
      8 C12          1.6450     3.3820     0.0440 c          1 J6Q       0.715000
      9 C15         -1.2300     0.7190     0.0170 ca         1 J6Q      -0.075300
     10 C16         -1.9140     0.8610     1.2580 ca         1 J6Q      -0.056000
     11 C23         -3.0680    -0.6480    -0.7810 ca         1 J6Q       0.015400
     12 C24         -1.8200    -0.0540    -1.0140 ca         1 J6Q      -0.045000
     13 C4           1.2390     0.2930    -0.0700 ca         1 J6Q      -0.023300
     14 Cl8          4.4690    -2.9220     0.4510 cl         1 J6Q      -0.252000
     15 C9           0.1460     1.3520    -0.2400 c3         1 J6Q       0.036900
     16 O13          1.4670     4.1650    -0.8760 o          1 J6Q      -0.730000
     17 O14          2.7410     3.1450     0.5290 o          1 J6Q      -0.730000
     18 C17         -3.1700     0.2510     1.4620 ca         1 J6Q      -0.133000
     19 C18         -3.7050    -0.4940     0.4050 ca         1 J6Q      -0.090200
     20 N19         -4.8700    -1.1920     0.2920 na         1 J6Q       0.060600
     21 C20         -5.9000    -1.3210     1.3310 c3         1 J6Q       0.078900
     22 N21         -4.9380    -1.7700    -0.9670 nc         1 J6Q      -0.191400
     23 N22         -3.8300    -1.4380    -1.6320 nd         1 J6Q      -0.228400
     24 H27          3.7960    -2.4970    -2.4780 hc         1 J6Q       0.037367
     25 H25          3.6370    -0.8590    -3.1230 hc         1 J6Q       0.037367
     26 H26          4.9700    -1.2450    -2.0280 hc         1 J6Q       0.037367
     27 H28          1.8990     0.4080    -2.1280 ha         1 J6Q       0.108000
     28 H29          0.8140    -0.0810     2.0260 ha         1 J6Q       0.151000
     29 H30          2.5740    -1.8110     2.2780 ha         1 J6Q       0.119000
     30 H32          0.6060     2.3180     1.6340 hc         1 J6Q       0.026200
     31 H31         -0.4710     3.2560     0.4780 hc         1 J6Q       0.026200
     32 H33         -1.4790     1.4370     2.0710 ha         1 J6Q       0.125000
     33 H38         -1.3190    -0.1930    -1.9690 ha         1 J6Q       0.137000
     34 H10          0.1450     1.6820    -1.2880 hc         1 J6Q       0.086700
     35 H34         -3.6970     0.3570     2.4080 ha         1 J6Q       0.113000
     36 H36         -6.2770    -0.3260     1.5970 h1         1 J6Q       0.052367
     37 H35         -6.7290    -1.9360     0.9610 h1         1 J6Q       0.052367
     38 H37         -5.4650    -1.7940     2.2200 h1         1 J6Q       0.052367
@<TRIPOS>BOND
     1     1     2 1   
     2     1    24 1   
     3     1    25 1   
     4     1    26 1   
     5     2     3 ar  
     6     2     6 ar  
     7     3    13 ar  
     8     3    27 1   
     9     4     5 ar  
    10     4    13 ar  
    11     4    28 1   
    12     5     6 ar  
    13     5    29 1   
    14     6    14 1   
    15     7     8 1   
    16     7    15 1   
    17     7    30 1   
    18     7    31 1   
    19     8    16 1   
    20     8    17 1   
    21     9    10 ar  
    22     9    12 ar  
    23     9    15 1   
    24    10    18 ar  
    25    10    32 1   
    26    11    12 ar  
    27    11    19 ar  
    28    11    23 1   
    29    12    33 1   
    30    13    15 1   
    31    15    34 1   
    32    18    19 ar  
    33    18    35 1   
    34    19    20 1   
    35    20    21 1   
    36    20    22 1   
    37    21    36 1   
    38    21    37 1   
    39    21    38 1   
    40    22    23 2   
@<TRIPOS>SUBSTRUCTURE
     1 J6Q         1 TEMP              0 ****  ****    0 ROOT
