@<TRIPOS>MOLECULE
J6R
  120   122     1     0     0
SMALL
abcg2


@<TRIPOS>ATOM
      1 CG1        105.4040    44.0620   200.7920 c3         1 J6R      -0.074400
      2 CG2        106.1820    46.4320   201.1630 c3         1 J6R      -0.094100
      3 CBC        109.0670    40.8030   205.1370 c3         1 J6R       0.143100
      4 NAY        108.2230    40.0930   204.1970 n3         1 J6R      -0.688600
      5 CAX        107.6660    38.9100   204.8380 c6         1 J6R       0.165800
      6 CAW        106.8140    38.0860   203.8910 c6         1 J6R      -0.077400
      7 CBB        105.6940    38.9400   203.3180 c6         1 J6R      -0.075400
      8 CBA        106.2870    40.1830   202.6760 c6         1 J6R      -0.074400
      9 CAZ        107.1800    40.9470   203.6610 c6         1 J6R       0.102500
     10 CBD        107.7690    42.1300   202.8960 c          1 J6R       0.600100
     11 OBE        108.7000    42.0030   202.1160 o          1 J6R      -0.591100
     12 N          107.1150    43.2890   203.0970 ns         1 J6R      -0.504900
     13 CA         107.3410    44.5020   202.3370 c3         1 J6R       0.036700
     14 CB         106.0100    45.0520   201.7910 c3         1 J6R      -0.065700
     15 CD1        103.9600    44.3690   200.4210 c3         1 J6R      -0.089100
     16 C          108.0010    45.5050   203.2880 c          1 J6R       0.593100
     17 O          107.3490    45.8570   204.2630 o          1 J6R      -0.617100
     18 NAA        109.2630    45.9310   203.0480 n          1 J6R      -0.392800
     19 CAL        110.0940    45.4220   201.9510 c3         1 J6R       0.095000
     20 CBQ        109.7510    45.8430   200.5220 c3         1 J6R      -0.094400
     21 CBR        109.6430    47.3340   200.2420 c3         1 J6R      -0.075400
     22 CBS        109.3880    47.5920   198.7580 c3         1 J6R      -0.070400
     23 CBT        109.1500    49.0520   198.3640 c3         1 J6R      -0.054700
     24 CCC        110.3560    49.9340   198.6710 c3         1 J6R      -0.095100
     25 CBU        107.8720    49.6140   198.9820 c3         1 J6R      -0.095100
     26 CAB        109.9510    46.6690   204.1210 c3         1 J6R       0.103700
     27 CAJ        111.0480    45.8250   204.8070 c3         1 J6R      -0.071700
     28 CAN        110.5770    44.4030   205.0960 c3         1 J6R      -0.090100
     29 CAM        111.4810    46.4830   206.1170 c3         1 J6R      -0.090100
     30 CAC        110.4770    48.0090   203.6110 c3         1 J6R      -0.084400
     31 CAD        109.3890    49.0630   203.4730 c3         1 J6R       0.149000
     32 OAK        108.9390    49.3920   204.7680 oh         1 J6R      -0.658000
     33 CAE        109.8850    50.3010   202.7740 cc         1 J6R       0.384700
     34 NAI        109.1290    51.0800   202.0730 nd         1 J6R      -0.581000
     35 SAF        111.5150    50.8640   202.9290 ss         1 J6R      -0.053400
     36 CAG        111.1260    52.2160   201.9670 cc         1 J6R      -0.258000
     37 CAH        109.8160    52.1580   201.5980 cd         1 J6R       0.255500
     38 CBF        109.0880    53.1760   200.7850 c          1 J6R       0.529600
     39 OBJ        107.9050    53.4010   200.9900 o          1 J6R      -0.537100
     40 NBG        109.8370    53.7930   199.8590 ns         1 J6R      -0.493900
     41 CBH        109.4120    54.9280   199.0640 c3         1 J6R       0.114700
     42 CBI        109.5320    54.6300   197.5720 c3         1 J6R      -0.052400
     43 CBL        108.6500    53.4870   197.0890 c3         1 J6R      -0.198700
     44 CBO        108.9070    53.2100   195.6070 c3         1 J6R      -0.061100
     45 CBM        107.1420    53.7510   197.2990 c          1 J6R       0.720000
     46 OBP        106.7430    54.9250   197.1490 o          1 J6R      -0.732500
     47 OBN        106.4320    52.7560   197.5610 o          1 J6R      -0.732500
     48 CBK        110.2280    56.1700   199.4540 c3         1 J6R      -0.053100
     49 CBV        110.0860    56.5050   200.9100 ca         1 J6R      -0.073300
     50 CBW        108.9730    57.2060   201.3700 ca         1 J6R      -0.079000
     51 CBX        108.7940    57.4740   202.7190 ca         1 J6R      -0.151500
     52 CBY        109.7490    57.0280   203.6130 ca         1 J6R       0.156000
     53 FCB        109.5840    57.2790   204.9230 f          1 J6R      -0.192000
     54 CBZ        110.8690    56.3340   203.1990 ca         1 J6R      -0.151500
     55 CCA        111.0270    56.0790   201.8430 ca         1 J6R      -0.079000
     56 H1         106.0250    44.0470   199.8900 hc         1 J6R       0.037700
     57 H2         105.4450    43.0530   201.2080 hc         1 J6R       0.037700
     58 H3         106.5990    47.1610   201.8590 hc         1 J6R       0.046700
     59 H4         106.8330    46.3940   200.2870 hc         1 J6R       0.046700
     60 H5         105.2220    46.8290   200.8340 hc         1 J6R       0.046700
     61 H6         109.5880    41.6320   204.6580 h1         1 J6R       0.034700
     62 H7         108.5080    41.2030   205.9970 h1         1 J6R       0.034700
     63 H8         109.8290    40.1270   205.5260 h1         1 J6R       0.034700
     64 H12        107.4380    37.7000   203.0800 hc         1 J6R       0.047700
     65 H13        105.1090    38.3810   202.5850 hc         1 J6R       0.039700
     66 H14        106.8860    39.8930   201.8080 hc         1 J6R       0.058700
     67 H15        105.4990    40.8490   202.3170 hc         1 J6R       0.058700
     68 H16        106.5360    41.3290   204.4770 h1         1 J6R       0.024700
     69 H17        106.3850    43.3130   203.7920 hn         1 J6R       0.321500
     70 H18        107.9770    44.2230   201.5010 h1         1 J6R       0.093700
     71 H19        105.3220    45.1500   202.6390 hc         1 J6R       0.059700
     72 H20        103.5630    43.6050   199.7520 hc         1 J6R       0.033033
     73 H21        103.3250    44.3900   201.3090 hc         1 J6R       0.033033
     74 H22        103.8540    45.3290   199.9150 hc         1 J6R       0.033033
     75 H23        111.1110    45.7550   202.1550 h1         1 J6R       0.050200
     76 H24        110.1310    44.3310   201.9890 h1         1 J6R       0.050200
     77 H25        110.5460    45.4200   199.8990 hc         1 J6R       0.041700
     78 H26        108.8350    45.3560   200.1820 hc         1 J6R       0.041700
     79 H27        108.8320    47.7590   200.8380 hc         1 J6R       0.045200
     80 H28        110.5620    47.8390   200.5540 hc         1 J6R       0.045200
     81 H29        110.2380    47.2040   198.1850 hc         1 J6R       0.026200
     82 H30        108.5190    47.0030   198.4430 hc         1 J6R       0.026200
     83 H31        109.0130    49.0570   197.2760 hc         1 J6R       0.044700
     84 H32        110.2020    50.9530   198.3120 hc         1 J6R       0.039533
     85 H33        110.5510    49.9960   199.7430 hc         1 J6R       0.039533
     86 H34        111.2600    49.5500   198.1920 hc         1 J6R       0.039533
     87 H35        107.6200    50.5860   198.5560 hc         1 J6R       0.039533
     88 H36        107.0250    48.9470   198.8050 hc         1 J6R       0.039533
     89 H37        107.9680    49.7480   200.0610 hc         1 J6R       0.039533
     90 H38        109.1940    46.8630   204.8790 h1         1 J6R       0.103700
     91 H39        111.9270    45.7750   204.1540 hc         1 J6R       0.041700
     92 H40        111.3500    43.8520   205.6340 hc         1 J6R       0.035700
     93 H41        109.6800    44.4040   205.7190 hc         1 J6R       0.035700
     94 H42        110.3560    43.8400   204.1900 hc         1 J6R       0.035700
     95 H43        112.2430    45.8760   206.6080 hc         1 J6R       0.035700
     96 H44        111.9040    47.4770   205.9790 hc         1 J6R       0.035700
     97 H45        110.6370    46.5730   206.8050 hc         1 J6R       0.035700
     98 H46        111.2380    48.3900   204.2960 hc         1 J6R       0.058200
     99 H47        110.9820    47.8790   202.6520 hc         1 J6R       0.058200
    100 H48        108.5700    48.6710   202.8570 h1         1 J6R       0.073700
    101 H49        108.1140    49.8830   204.6910 ho         1 J6R       0.463000
    102 H51        111.8620    52.9710   201.7380 h4         1 J6R       0.158000
    103 H54        110.7780    53.4630   199.7040 hn         1 J6R       0.293500
    104 H55        108.3660    55.1160   199.3030 h1         1 J6R       0.122700
    105 H56        109.2800    55.5410   197.0230 hc         1 J6R       0.023700
    106 H57        110.5810    54.4110   197.3400 hc         1 J6R       0.023700
    107 H58        108.9180    52.5810   197.6420 hc         1 J6R       0.032700
    108 H59        108.3070    52.3720   195.2500 hc         1 J6R       0.013033
    109 H60        108.6630    54.0810   194.9960 hc         1 J6R       0.013033
    110 H61        109.9560    52.9640   195.4280 hc         1 J6R       0.013033
    111 H63        111.2790    56.0020   199.2040 hc         1 J6R       0.046700
    112 H64        109.8860    57.0060   198.8390 hc         1 J6R       0.046700
    113 H65        108.2280    57.5510   200.6630 ha         1 J6R       0.116500
    114 H66        107.9280    58.0210   203.0680 ha         1 J6R       0.122500
    115 H67        111.6060    55.9990   203.9180 ha         1 J6R       0.122500
    116 H68        111.9060    55.5400   201.5100 ha         1 J6R       0.116500
    117 H69        106.4150    37.2230   204.4280 hc         1 J6R       0.047700
    118 H9         105.0050    39.2290   204.1190 hc         1 J6R       0.039700
    119 H10        108.4970    38.3070   205.2110 h1         1 J6R       0.029200
    120 H11        107.0580    39.1880   205.7190 h1         1 J6R       0.029200
@<TRIPOS>BOND
     1     1    14 1   
     2     1    15 1   
     3     1    56 1   
     4     1    57 1   
     5     2    14 1   
     6     2    58 1   
     7     2    59 1   
     8     2    60 1   
     9     3     4 1   
    10     3    61 1   
    11     3    62 1   
    12     3    63 1   
    13     4     5 1   
    14     4     9 1   
    15     5     6 1   
    16     5   119 1   
    17     5   120 1   
    18     6     7 1   
    19     6    64 1   
    20     6   117 1   
    21     7     8 1   
    22     7    65 1   
    23     7   118 1   
    24     8     9 1   
    25     8    66 1   
    26     8    67 1   
    27     9    10 1   
    28     9    68 1   
    29    10    11 2   
    30    10    12 1   
    31    12    13 1   
    32    12    69 1   
    33    13    14 1   
    34    13    16 1   
    35    13    70 1   
    36    14    71 1   
    37    15    72 1   
    38    15    73 1   
    39    15    74 1   
    40    16    17 2   
    41    16    18 1   
    42    18    19 1   
    43    18    26 1   
    44    19    20 1   
    45    19    75 1   
    46    19    76 1   
    47    20    21 1   
    48    20    77 1   
    49    20    78 1   
    50    21    22 1   
    51    21    79 1   
    52    21    80 1   
    53    22    23 1   
    54    22    81 1   
    55    22    82 1   
    56    23    24 1   
    57    23    25 1   
    58    23    83 1   
    59    24    84 1   
    60    24    85 1   
    61    24    86 1   
    62    25    87 1   
    63    25    88 1   
    64    25    89 1   
    65    26    27 1   
    66    26    30 1   
    67    26    90 1   
    68    27    28 1   
    69    27    29 1   
    70    27    91 1   
    71    28    92 1   
    72    28    93 1   
    73    28    94 1   
    74    29    95 1   
    75    29    96 1   
    76    29    97 1   
    77    30    31 1   
    78    30    98 1   
    79    30    99 1   
    80    31    32 1   
    81    31    33 1   
    82    31   100 1   
    83    32   101 1   
    84    33    34 2   
    85    33    35 1   
    86    34    37 1   
    87    35    36 1   
    88    36    37 2   
    89    36   102 1   
    90    37    38 1   
    91    38    39 2   
    92    38    40 1   
    93    40    41 1   
    94    40   103 1   
    95    41    42 1   
    96    41    48 1   
    97    41   104 1   
    98    42    43 1   
    99    42   105 1   
   100    42   106 1   
   101    43    44 1   
   102    43    45 1   
   103    43   107 1   
   104    44   108 1   
   105    44   109 1   
   106    44   110 1   
   107    45    46 1   
   108    45    47 1   
   109    48    49 1   
   110    48   111 1   
   111    48   112 1   
   112    49    50 ar  
   113    49    55 ar  
   114    50    51 ar  
   115    50   113 1   
   116    51    52 ar  
   117    51   114 1   
   118    52    53 1   
   119    52    54 ar  
   120    54    55 ar  
   121    54   115 1   
   122    55   116 1   
@<TRIPOS>SUBSTRUCTURE
     1 J6R         1 TEMP              0 ****  ****    0 ROOT
