@<TRIPOS>MOLECULE
J6R
  120   122     1     0     0
SMALL
No Charge or Current Charge


@<TRIPOS>ATOM
      1 CG1        106.2890    44.1360   200.6110 c3         1 J6R      -0.074400
      2 CG2        106.8900    46.4280   201.6290 c3         1 J6R      -0.094100
      3 CBC        105.9380    39.3880   201.8690 c3         1 J6R       0.143100
      4 NAY        105.8000    39.8220   203.2800 n3         1 J6R      -0.688600
      5 CAX        105.4060    38.6830   204.1570 c6         1 J6R       0.165800
      6 CAW        105.0860    39.1440   205.5960 c6         1 J6R      -0.077400
      7 CBB        106.2770    39.9150   206.2020 c6         1 J6R      -0.075400
      8 CBA        106.6840    41.0730   205.2640 c6         1 J6R      -0.074400
      9 CAZ        107.0110    40.5610   203.8230 c6         1 J6R       0.102500
     10 CBD        107.6030    41.7040   202.9020 c          1 J6R       0.600100
     11 OBE        108.1900    41.4570   201.8540 o          1 J6R      -0.591100
     12 N          107.4470    43.0090   203.3340 ns         1 J6R      -0.504900
     13 CA         107.9090    44.2200   202.6140 c3         1 J6R       0.036700
     14 CB         106.6930    44.9100   201.9010 c3         1 J6R      -0.065700
     15 CD1        104.9910    44.6200   199.9310 c3         1 J6R      -0.089100
     16 C          108.6590    45.1480   203.6280 c          1 J6R       0.593100
     17 O          108.1940    45.2850   204.7560 o          1 J6R      -0.617100
     18 NAA        109.8270    45.8700   203.2230 n          1 J6R      -0.392800
     19 CAL        110.7370    45.2800   202.1840 c3         1 J6R       0.095000
     20 CBQ        110.4370    45.5520   200.6840 c3         1 J6R      -0.094400
     21 CBR        110.6400    46.9990   200.1860 c3         1 J6R      -0.075400
     22 CBS        110.4450    47.1140   198.6510 c3         1 J6R      -0.070400
     23 CBT        110.5680    48.5400   198.0460 c3         1 J6R      -0.054700
     24 CCC        111.9620    49.1710   198.2670 c3         1 J6R      -0.095100
     25 CBU        109.4320    49.4830   198.5030 c3         1 J6R      -0.095100
     26 CAB        110.4680    46.7990   204.2280 c3         1 J6R       0.103700
     27 CAJ        111.6880    46.1590   204.9970 c3         1 J6R      -0.071700
     28 CAN        111.3950    44.7240   205.5130 c3         1 J6R      -0.090100
     29 CAM        112.1730    47.0250   206.1910 c3         1 J6R      -0.090100
     30 CAC        110.7990    48.1830   203.5990 c3         1 J6R      -0.084400
     31 CAD        109.5470    49.0020   203.1830 c3         1 J6R       0.149000
     32 OAK        108.7890    49.3250   204.3680 oh         1 J6R      -0.658000
     33 CAE        109.8420    50.2580   202.3660 cc         1 J6R       0.384700
     34 NAI        108.8730    51.0690   201.9590 nd         1 J6R      -0.581000
     35 SAF        111.4600    50.7180   201.9010 ss         1 J6R      -0.053400
     36 CAG        110.7670    52.0620   201.0440 cc         1 J6R      -0.258000
     37 CAH        109.3880    52.1120   201.1800 cd         1 J6R       0.255500
     38 CBF        108.5620    53.2010   200.5240 c          1 J6R       0.529600
     39 OBJ        107.3440    53.2930   200.6350 o          1 J6R      -0.537100
     40 NBG        109.2940    54.1040   199.7670 ns         1 J6R      -0.493900
     41 CBH        108.7320    55.2520   199.0460 c3         1 J6R       0.114700
     42 CBI        109.3230    55.3400   197.6150 c3         1 J6R      -0.052400
     43 CBL        109.0780    54.0890   196.7200 c3         1 J6R      -0.198700
     44 CBO        109.7490    54.2450   195.3350 c3         1 J6R      -0.061100
     45 CBM        107.5730    53.7600   196.5680 c          1 J6R       0.720000
     46 OBP        106.8330    54.6110   196.0960 o          1 J6R      -0.732500
     47 OBN        107.1850    52.6590   196.9280 o          1 J6R      -0.732500
     48 CBK        108.9530    56.5590   199.8460 c3         1 J6R      -0.053100
     49 CBV        108.3930    56.4960   201.2630 ca         1 J6R      -0.073300
     50 CBW        107.0180    56.7040   201.4900 ca         1 J6R      -0.079000
     51 CBX        106.4970    56.6310   202.7950 ca         1 J6R      -0.151500
     52 CBY        107.3500    56.3490   203.8730 ca         1 J6R       0.156000
     53 FCB        106.8490    56.2770   205.1250 f          1 J6R      -0.192000
     54 CBZ        108.7210    56.1410   203.6560 ca         1 J6R      -0.151500
     55 CCA        109.2430    56.2150   202.3530 ca         1 J6R      -0.079000
     56 H1         107.1100    44.1810   199.8850 hc         1 J6R       0.037700
     57 H2         106.1510    43.0770   200.8580 hc         1 J6R       0.037700
     58 H3         107.1110    46.9710   202.5540 hc         1 J6R       0.046700
     59 H4         107.6960    46.6100   200.9120 hc         1 J6R       0.046700
     60 H5         105.9760    46.8770   201.2240 hc         1 J6R       0.046700
     61 H6         106.0240    40.2510   201.1960 h1         1 J6R       0.034700
     62 H7         106.8230    38.7510   201.7390 h1         1 J6R       0.034700
     63 H8         105.0560    38.8170   201.5510 h1         1 J6R       0.034700
     64 H12        104.1930    39.7830   205.5870 hc         1 J6R       0.047700
     65 H13        106.0090    40.3050   207.1930 hc         1 J6R       0.039700
     66 H14        105.8700    41.8100   205.2280 hc         1 J6R       0.058700
     67 H15        107.5600    41.5820   205.6900 hc         1 J6R       0.058700
     68 H16        107.8390    39.8430   203.9190 h1         1 J6R       0.024700
     69 H17        106.9730    43.1420   204.2190 hn         1 J6R       0.321500
     70 H18        108.6250    43.8990   201.8550 h1         1 J6R       0.093700
     71 H19        105.8440    44.8470   202.5950 hc         1 J6R       0.059700
     72 H20        104.7120    43.9360   199.1210 hc         1 J6R       0.033033
     73 H21        104.1630    44.6530   200.6490 hc         1 J6R       0.033033
     74 H22        105.1170    45.6180   199.4950 hc         1 J6R       0.033033
     75 H23        111.7630    45.6230   202.3600 h1         1 J6R       0.050200
     76 H24        110.7580    44.1920   202.3340 h1         1 J6R       0.050200
     77 H25        111.1080    44.9050   200.1050 hc         1 J6R       0.041700
     78 H26        109.4270    45.2260   200.4240 hc         1 J6R       0.041700
     79 H27        109.9290    47.6550   200.6920 hc         1 J6R       0.045200
     80 H28        111.6500    47.3310   200.4540 hc         1 J6R       0.045200
     81 H29        111.1780    46.4650   198.1560 hc         1 J6R       0.026200
     82 H30        109.4580    46.7110   198.3900 hc         1 J6R       0.026200
     83 H31        110.4510    48.4230   196.9610 hc         1 J6R       0.044700
     84 H32        112.0450    50.1210   197.7240 hc         1 J6R       0.039533
     85 H33        112.1450    49.3720   199.3270 hc         1 J6R       0.039533
     86 H34        112.7510    48.5030   197.9020 hc         1 J6R       0.039533
     87 H35        109.4990    50.4490   197.9880 hc         1 J6R       0.039533
     88 H36        108.4520    49.0470   198.2790 hc         1 J6R       0.039533
     89 H37        109.4860    49.6690   199.5790 hc         1 J6R       0.039533
     90 H38        109.7300    47.0180   205.0110 h1         1 J6R       0.103700
     91 H39        112.5360    46.0840   204.3070 hc         1 J6R       0.041700
     92 H40        112.2670    44.3160   206.0380 hc         1 J6R       0.035700
     93 H41        110.5500    44.7260   206.2120 hc         1 J6R       0.035700
     94 H42        111.1630    44.0360   204.6930 hc         1 J6R       0.035700
     95 H43        112.9340    46.4920   206.7740 hc         1 J6R       0.035700
     96 H44        112.6350    47.9600   205.8560 hc         1 J6R       0.035700
     97 H45        111.3410    47.2680   206.8630 hc         1 J6R       0.035700
     98 H46        111.3650    48.8000   204.3030 hc         1 J6R       0.058200
     99 H47        111.4550    48.0230   202.7380 hc         1 J6R       0.058200
    100 H48        108.9380    48.3610   202.5350 h1         1 J6R       0.073700
    101 H49        108.0980    49.9690   204.0910 ho         1 J6R       0.463000
    102 H51        111.4300    52.7250   200.5060 h4         1 J6R       0.158000
    103 H54        110.2930    53.9560   199.7120 hn         1 J6R       0.293500
    104 H55        107.6460    55.1090   198.9490 h1         1 J6R       0.122700
    105 H56        108.9030    56.2220   197.1150 hc         1 J6R       0.023700
    106 H57        110.4040    55.5140   197.6910 hc         1 J6R       0.023700
    107 H58        109.5600    53.2270   197.1970 hc         1 J6R       0.032700
    108 H59        109.5900    53.3450   194.7290 hc         1 J6R       0.013033
    109 H60        109.3350    55.1030   194.7910 hc         1 J6R       0.013033
    110 H61        110.8300    54.3950   195.4420 hc         1 J6R       0.013033
    111 H63        110.0260    56.7820   199.8770 hc         1 J6R       0.046700
    112 H64        108.4880    57.3910   199.3030 hc         1 J6R       0.046700
    113 H65        106.3530    56.9180   200.6560 ha         1 J6R       0.116500
    114 H66        105.4360    56.7900   202.9700 ha         1 J6R       0.122500
    115 H67        109.3750    55.9220   204.4960 ha         1 J6R       0.122500
    116 H68        110.3050    56.0480   202.1890 ha         1 J6R       0.116500
    117 H69        104.8440    38.2740   206.2210 hc         1 J6R       0.047700
    118 H9         107.1280    39.2350   206.3470 hc         1 J6R       0.039700
    119 H10        104.5180    38.1780   203.7490 h1         1 J6R       0.029200
    120 H11        106.2140    37.9360   204.1900 h1         1 J6R       0.029200
@<TRIPOS>BOND
     1     1    14 1   
     2     1    15 1   
     3     1    56 1   
     4     1    57 1   
     5     2    14 1   
     6     2    58 1   
     7     2    59 1   
     8     2    60 1   
     9     3     4 1   
    10     3    61 1   
    11     3    62 1   
    12     3    63 1   
    13     4     5 1   
    14     4     9 1   
    15     5     6 1   
    16     5   119 1   
    17     5   120 1   
    18     6     7 1   
    19     6    64 1   
    20     6   117 1   
    21     7     8 1   
    22     7    65 1   
    23     7   118 1   
    24     8     9 1   
    25     8    66 1   
    26     8    67 1   
    27     9    10 1   
    28     9    68 1   
    29    10    11 2   
    30    10    12 1   
    31    12    13 1   
    32    12    69 1   
    33    13    14 1   
    34    13    16 1   
    35    13    70 1   
    36    14    71 1   
    37    15    72 1   
    38    15    73 1   
    39    15    74 1   
    40    16    17 2   
    41    16    18 1   
    42    18    19 1   
    43    18    26 1   
    44    19    20 1   
    45    19    75 1   
    46    19    76 1   
    47    20    21 1   
    48    20    77 1   
    49    20    78 1   
    50    21    22 1   
    51    21    79 1   
    52    21    80 1   
    53    22    23 1   
    54    22    81 1   
    55    22    82 1   
    56    23    24 1   
    57    23    25 1   
    58    23    83 1   
    59    24    84 1   
    60    24    85 1   
    61    24    86 1   
    62    25    87 1   
    63    25    88 1   
    64    25    89 1   
    65    26    27 1   
    66    26    30 1   
    67    26    90 1   
    68    27    28 1   
    69    27    29 1   
    70    27    91 1   
    71    28    92 1   
    72    28    93 1   
    73    28    94 1   
    74    29    95 1   
    75    29    96 1   
    76    29    97 1   
    77    30    31 1   
    78    30    98 1   
    79    30    99 1   
    80    31    32 1   
    81    31    33 1   
    82    31   100 1   
    83    32   101 1   
    84    33    34 2   
    85    33    35 1   
    86    34    37 1   
    87    35    36 1   
    88    36    37 2   
    89    36   102 1   
    90    37    38 1   
    91    38    39 2   
    92    38    40 1   
    93    40    41 1   
    94    40   103 1   
    95    41    42 1   
    96    41    48 1   
    97    41   104 1   
    98    42    43 1   
    99    42   105 1   
   100    42   106 1   
   101    43    44 1   
   102    43    45 1   
   103    43   107 1   
   104    44   108 1   
   105    44   109 1   
   106    44   110 1   
   107    45    46 1   
   108    45    47 1   
   109    48    49 1   
   110    48   111 1   
   111    48   112 1   
   112    49    50 ar  
   113    49    55 ar  
   114    50    51 ar  
   115    50   113 1   
   116    51    52 ar  
   117    51   114 1   
   118    52    53 1   
   119    52    54 ar  
   120    54    55 ar  
   121    54   115 1   
   122    55   116 1   
@<TRIPOS>SUBSTRUCTURE
     1 J6R         1 TEMP              0 ****  ****    0 ROOT
