@<TRIPOS>MOLECULE
J6S
   26    26     1     0     0
SMALL
No Charge or Current Charge


@<TRIPOS>ATOM
      1 C1           6.0280    -0.6110     0.0470 c          1 J6S       0.652000
      2 C10         -4.3660    -0.0680     0.0040 ca         1 J6S      -0.206200
      3 C2           4.8410     0.4960     0.0110 c          1 J6S       0.400300
      4 C3           3.4310    -0.0280     0.0230 ce         1 J6S      -0.186200
      5 C4           2.3040     0.7450    -0.0050 cf         1 J6S      -0.243000
      6 C5           0.9440     0.2260     0.0080 cf         1 J6S      -0.080000
      7 C6          -0.1700     1.0100    -0.0200 ce         1 J6S      -0.250200
      8 C7          -1.6090     0.6170    -0.0110 ca         1 J6S       0.040200
      9 C8A         -2.5960     1.6190    -0.0450 ca         1 J6S      -0.135000
     10 C8B         -2.0110    -0.7320     0.0310 ca         1 J6S      -0.135000
     11 C9A         -3.9620     1.2860    -0.0380 ca         1 J6S      -0.041500
     12 C9B         -3.3750    -1.0750     0.0390 ca         1 J6S      -0.041500
     13 O11          7.1620    -0.2450     0.3490 o          1 J6S      -0.690500
     14 O12          5.7560    -1.7760    -0.2360 o          1 J6S      -0.690500
     15 O13         -6.1260    -1.6290     0.0500 o          1 J6S      -0.416000
     16 O14         -6.6530     0.4870    -0.0190 o          1 J6S      -0.416000
     17 H3           3.3290    -1.1130     0.0580 ha         1 J6S       0.203000
     18 H4           2.4190     1.8320    -0.0400 ha         1 J6S       0.186000
     19 H5           0.8330    -0.8590     0.0430 ha         1 J6S       0.169000
     20 H6          -0.0130     2.0890    -0.0540 ha         1 J6S       0.180000
     21 H7          -2.3070     2.6670    -0.0780 ha         1 J6S       0.127000
     22 H8          -1.2740    -1.5290     0.0580 ha         1 J6S       0.127000
     23 H9          -4.6980     2.0880    -0.0650 ha         1 J6S       0.143000
     24 H10         -3.6500    -2.1280     0.0720 ha         1 J6S       0.143000
     25 O1           5.0700     1.7090    -0.0230 o          1 J6S      -0.539100
     26 N11         -5.8210    -0.4300     0.0120 no         1 J6S       0.699200
@<TRIPOS>BOND
     1     1     3 1   
     2     1    13 1   
     3     1    14 1   
     4     2    11 ar  
     5     2    12 ar  
     6     2    26 1   
     7     3     4 1   
     8     3    25 2   
     9     4     5 2   
    10     4    17 1   
    11     5     6 1   
    12     5    18 1   
    13     6     7 2   
    14     6    19 1   
    15     7     8 1   
    16     7    20 1   
    17     8     9 ar  
    18     8    10 ar  
    19     9    11 ar  
    20     9    21 1   
    21    10    12 ar  
    22    10    22 1   
    23    11    23 1   
    24    12    24 1   
    25    15    26 1   
    26    16    26 1   
@<TRIPOS>SUBSTRUCTURE
     1 J6S         1 TEMP              0 ****  ****    0 ROOT
