@<TRIPOS>MOLECULE
J6S
   26    26     1     0     0
SMALL
bcc


@<TRIPOS>ATOM
      1 C1           5.8720    -0.5780     0.0420 c          1 J6S       0.862600
      2 C10         -4.2530    -0.0600    -0.0030 ca         1 J6S      -0.206200
      3 C2           4.7080     0.4520     0.0120 c          1 J6S       0.400300
      4 C3           3.3340    -0.0810     0.0250 ce         1 J6S      -0.136200
      5 C4           2.2560     0.7210     0.0070 cf         1 J6S      -0.193000
      6 C5           0.9060     0.2200     0.0190 cf         1 J6S      -0.030000
      7 C6          -0.1640     1.0350    -0.0070 ce         1 J6S      -0.200200
      8 C7          -1.5600     0.6210    -0.0040 ca         1 J6S       0.040200
      9 C8A         -2.5510     1.6070    -0.0310 ca         1 J6S      -0.153000
     10 C8B         -1.9590    -0.7210     0.0240 ca         1 J6S      -0.153000
     11 C9A         -3.8940     1.2800    -0.0310 ca         1 J6S      -0.059500
     12 C9B         -3.2950    -1.0660     0.0240 ca         1 J6S      -0.059500
     13 O11          7.0110    -0.0960     0.1000 o          1 J6S      -0.795800
     14 O12          5.5350    -1.7750     0.0010 o          1 J6S      -0.795800
     15 O13         -5.9460    -1.5940     0.0120 o          1 J6S      -0.226000
     16 O14         -6.4760     0.4720    -0.0220 o          1 J6S      -0.226000
     17 H3           3.2120    -1.1560     0.0520 ha         1 J6S       0.153000
     18 H4           2.3840     1.8000    -0.0190 ha         1 J6S       0.136000
     19 H5           0.7860    -0.8570     0.0450 ha         1 J6S       0.119000
     20 H6           0.0050     2.1070    -0.0330 ha         1 J6S       0.130000
     21 H7          -2.2670     2.6510    -0.0530 ha         1 J6S       0.145000
     22 H8          -1.2230    -1.5130     0.0450 ha         1 J6S       0.145000
     23 H9          -4.6370     2.0620    -0.0520 ha         1 J6S       0.161000
     24 H10         -3.5770    -2.1080     0.0480 ha         1 J6S       0.161000
     25 O1           4.9380     1.6440    -0.0250 o          1 J6S      -0.539100
     26 N11         -5.6590    -0.4200    -0.0040 no         1 J6S       0.319200
@<TRIPOS>BOND
     1     1     3 1   
     2     1    13 1   
     3     1    14 1   
     4     2    11 ar  
     5     2    12 ar  
     6     2    26 1   
     7     3     4 1   
     8     3    25 2   
     9     4     5 2   
    10     4    17 1   
    11     5     6 1   
    12     5    18 1   
    13     6     7 2   
    14     6    19 1   
    15     7     8 1   
    16     7    20 1   
    17     8     9 ar  
    18     8    10 ar  
    19     9    11 ar  
    20     9    21 1   
    21    10    12 ar  
    22    10    22 1   
    23    11    23 1   
    24    12    24 1   
    25    15    26 1   
    26    16    26 1   
@<TRIPOS>SUBSTRUCTURE
     1 J6S         1 TEMP              0 ****  ****    0 ROOT
