@<TRIPOS>MOLECULE
J6T
   50    52     1     0     0
SMALL
No Charge or Current Charge


@<TRIPOS>ATOM
      1 C1          -1.8170     1.2860    -2.4410 ca         1 J6T      -0.103000
      2 C2          -1.4140     0.6270    -1.2530 cp         1 J6T      -0.038000
      3 C3          -0.0320     0.3520    -1.0860 ca         1 J6T      -0.043000
      4 C11          5.0850     0.1420    -0.8080 ca         1 J6T      -0.205000
      5 C12          6.3680    -0.0150    -0.2630 ca         1 J6T      -0.111000
      6 C13          6.6440     0.4560     1.0290 ca         1 J6T      -0.152000
      7 C14          5.6380     1.0860     1.7780 ca         1 J6T      -0.101000
      8 C15          4.3430     1.2540     1.2450 ca         1 J6T      -0.016300
      9 C16          3.2720     1.9440     2.1000 c3         1 J6T      -0.175100
     10 C17          2.5230     0.8960     2.9390 c          1 J6T       0.729000
     11 C20         -3.7150    -0.2010    -0.5680 ca         1 J6T      -0.101000
     12 C21         -4.6650    -0.5760     0.4050 ca         1 J6T      -0.156300
     13 C22         -4.3120    -0.5090     1.7680 ca         1 J6T      -0.120000
     14 C23         -3.0310    -0.0810     2.1480 ca         1 J6T      -0.108000
     15 C24         -2.0900     0.2850     1.1710 ca         1 J6T      -0.061000
     16 C25         -6.0540    -1.0450    -0.0290 c3         1 J6T       0.214800
     17 C27         -6.4320    -2.4370     0.5820 c3         1 J6T       0.164600
     18 C4           0.9150     0.7240    -2.0610 ca         1 J6T      -0.088300
     19 C5           0.4840     1.3780    -3.2300 ca         1 J6T      -0.102000
     20 C6          -0.8780     1.6570    -3.4180 ca         1 J6T      -0.133000
     21 C7          -2.4130     0.2340    -0.2080 cp         1 J6T      -0.036000
     22 C8           2.3920     0.4120    -1.8480 c3         1 J6T       0.215900
     23 O9           2.7920     0.9450    -0.5760 os         1 J6T      -0.317100
     24 C10          4.0640     0.7770    -0.0610 ca         1 J6T       0.146100
     25 O18          3.0070     0.5690     4.0130 o          1 J6T      -0.738000
     26 O19          1.5370     0.3600     2.4560 o          1 J6T      -0.738000
     27 N26         -7.0320     0.0220     0.2890 n8         1 J6T      -0.988200
     28 O28         -7.6460    -2.9610     0.0100 oh         1 J6T      -0.649000
     29 H1          -2.8650     1.5260    -2.6020 ha         1 J6T       0.102000
     30 H2           0.3090    -0.1640    -0.1910 ha         1 J6T       0.167000
     31 H3           4.9020    -0.2310    -1.8110 ha         1 J6T       0.096000
     32 H4           7.1500    -0.5030    -0.8410 ha         1 J6T       0.087000
     33 H5           7.6380     0.3320     1.4510 ha         1 J6T       0.091000
     34 H6           5.8640     1.4440     2.7800 ha         1 J6T       0.103000
     35 H7           3.7970     2.6410     2.7640 hc         1 J6T       0.036700
     36 H8           2.5760     2.4570     1.4260 hc         1 J6T       0.036700
     37 H9          -3.9830    -0.2620    -1.6200 ha         1 J6T       0.102000
     38 H10         -5.0290    -0.7850     2.5390 ha         1 J6T       0.093000
     39 H11         -2.7660    -0.0290     3.2020 ha         1 J6T       0.123000
     40 H12         -1.1070     0.6270     1.4890 ha         1 J6T       0.190000
     41 H13         -6.0450    -1.1700    -1.1220 h1         1 J6T       0.068700
     42 H14         -5.6050    -3.1350     0.3940 h1         1 J6T       0.021200
     43 H15         -6.5400    -2.3420     1.6710 h1         1 J6T       0.021200
     44 H16          1.2030     1.6700    -3.9920 ha         1 J6T       0.100000
     45 H17         -1.2080     2.1660    -4.3220 ha         1 J6T       0.098000
     46 H18          2.5330    -0.6770    -1.8720 h1         1 J6T       0.029200
     47 H19          2.9870     0.8560    -2.6560 h1         1 J6T       0.029200
     48 H21         -6.9870     0.2010     1.2970 hn         1 J6T       0.393500
     49 H22         -6.6900     0.8970    -0.1200 hn         1 J6T       0.393500
     50 H24         -7.8450    -3.7980     0.4830 ho         1 J6T       0.429000
@<TRIPOS>BOND
     1     1     2 ar  
     2     1    20 ar  
     3     1    29 1   
     4     2     3 ar  
     5     2    21 1   
     6     3    18 ar  
     7     3    30 1   
     8     4     5 ar  
     9     4    24 ar  
    10     4    31 1   
    11     5     6 ar  
    12     5    32 1   
    13     6     7 ar  
    14     6    33 1   
    15     7     8 ar  
    16     7    34 1   
    17     8     9 1   
    18     8    24 ar  
    19     9    10 1   
    20     9    35 1   
    21     9    36 1   
    22    10    25 1   
    23    10    26 1   
    24    11    12 ar  
    25    11    21 ar  
    26    11    37 1   
    27    12    13 ar  
    28    12    16 1   
    29    13    14 ar  
    30    13    38 1   
    31    14    15 ar  
    32    14    39 1   
    33    15    21 ar  
    34    15    40 1   
    35    16    17 1   
    36    16    27 1   
    37    16    41 1   
    38    17    28 1   
    39    17    42 1   
    40    17    43 1   
    41    18    19 ar  
    42    18    22 1   
    43    19    20 ar  
    44    19    44 1   
    45    20    45 1   
    46    22    23 1   
    47    22    46 1   
    48    22    47 1   
    49    23    24 1   
    50    27    48 1   
    51    27    49 1   
    52    28    50 1   
@<TRIPOS>SUBSTRUCTURE
     1 J6T         1 TEMP              0 ****  ****    0 ROOT
