@<TRIPOS>MOLECULE
J6T
   50    52     1     0     0
SMALL
abcg2


@<TRIPOS>ATOM
      1 C1          -1.7740     1.1390    -2.3750 ca         1 J6T      -0.103000
      2 C2          -1.3580     0.6060    -1.1520 cp         1 J6T      -0.038000
      3 C3          -0.0020     0.3420    -0.9690 ca         1 J6T      -0.043000
      4 C11          4.9660    -0.0900    -0.7080 ca         1 J6T      -0.205000
      5 C12          6.1600    -0.3640    -0.0450 ca         1 J6T      -0.111000
      6 C13          6.4120     0.1950     1.1960 ca         1 J6T      -0.152000
      7 C14          5.4560     1.0270     1.7730 ca         1 J6T      -0.101000
      8 C15          4.2530     1.3080     1.1450 ca         1 J6T      -0.016300
      9 C16          3.2180     2.1820     1.7760 c3         1 J6T      -0.175100
     10 C17          1.9020     1.4560     2.1510 c          1 J6T       0.729000
     11 C20         -3.6220    -0.1180    -0.4000 ca         1 J6T      -0.101000
     12 C21         -4.5730    -0.3790     0.5810 ca         1 J6T      -0.156300
     13 C22         -4.2200    -0.2020     1.9150 ca         1 J6T      -0.120000
     14 C23         -2.9420     0.2270     2.2470 ca         1 J6T      -0.108000
     15 C24         -2.0020     0.4910     1.2620 ca         1 J6T      -0.061000
     16 C25         -5.9490    -0.8830     0.1770 c3         1 J6T       0.214800
     17 C27         -5.9210    -2.4080     0.1840 c3         1 J6T       0.164600
     18 C4           0.9220     0.5900    -1.9810 ca         1 J6T      -0.088300
     19 C5           0.4870     1.1170    -3.1900 ca         1 J6T      -0.102000
     20 C6          -0.8610     1.3900    -3.3860 ca         1 J6T      -0.133000
     21 C7          -2.3370     0.3230    -0.0830 cp         1 J6T      -0.036000
     22 C8           2.3710     0.2660    -1.7660 c3         1 J6T       0.215900
     23 O9           2.8460     1.0660    -0.6990 os         1 J6T      -0.317100
     24 C10          4.0210     0.7410    -0.1170 ca         1 J6T       0.146100
     25 O18          1.9170     0.2150     2.2010 o          1 J6T      -0.738000
     26 O19          0.9370     2.2090     2.4030 o          1 J6T      -0.738000
     27 N26         -7.0580    -0.3950     0.9750 n8         1 J6T      -0.988200
     28 O28         -7.1300    -2.9090    -0.3340 oh         1 J6T      -0.649000
     29 H1          -2.8200     1.3710    -2.5370 ha         1 J6T       0.102000
     30 H2           0.3420    -0.0840    -0.0330 ha         1 J6T       0.167000
     31 H3           4.7920    -0.5290    -1.6810 ha         1 J6T       0.096000
     32 H4           6.8870    -1.0150    -0.5120 ha         1 J6T       0.087000
     33 H5           7.3400    -0.0120     1.7130 ha         1 J6T       0.091000
     34 H6           5.6470     1.4610     2.7480 ha         1 J6T       0.103000
     35 H7           3.6310     2.6120     2.6960 hc         1 J6T       0.036700
     36 H8           2.9770     3.0350     1.1360 hc         1 J6T       0.036700
     37 H9          -3.8930    -0.2700    -1.4390 ha         1 J6T       0.102000
     38 H10         -4.9360    -0.3890     2.7040 ha         1 J6T       0.093000
     39 H11         -2.6750     0.3640     3.2880 ha         1 J6T       0.123000
     40 H12         -1.0190     0.8520     1.5470 ha         1 J6T       0.190000
     41 H13         -6.1230    -0.5590    -0.8560 h1         1 J6T       0.068700
     42 H14         -5.0600    -2.7400    -0.4090 h1         1 J6T       0.021200
     43 H15         -5.7460    -2.7500     1.2150 h1         1 J6T       0.021200
     44 H16          1.2010     1.3170    -3.9800 ha         1 J6T       0.100000
     45 H17         -1.1990     1.8100    -4.3240 ha         1 J6T       0.098000
     46 H18          2.4880    -0.7970    -1.5210 h1         1 J6T       0.029200
     47 H19          2.9410     0.4540    -2.6830 h1         1 J6T       0.029200
     48 H21         -6.9820    -0.7180     1.9320 hn         1 J6T       0.393500
     49 H22         -7.0320     0.6170     1.0140 hn         1 J6T       0.393500
     50 H24         -7.0590    -3.8680    -0.3710 ho         1 J6T       0.429000
@<TRIPOS>BOND
     1     1     2 ar  
     2     1    20 ar  
     3     1    29 1   
     4     2     3 ar  
     5     2    21 1   
     6     3    18 ar  
     7     3    30 1   
     8     4     5 ar  
     9     4    24 ar  
    10     4    31 1   
    11     5     6 ar  
    12     5    32 1   
    13     6     7 ar  
    14     6    33 1   
    15     7     8 ar  
    16     7    34 1   
    17     8     9 1   
    18     8    24 ar  
    19     9    10 1   
    20     9    35 1   
    21     9    36 1   
    22    10    25 1   
    23    10    26 1   
    24    11    12 ar  
    25    11    21 ar  
    26    11    37 1   
    27    12    13 ar  
    28    12    16 1   
    29    13    14 ar  
    30    13    38 1   
    31    14    15 ar  
    32    14    39 1   
    33    15    21 ar  
    34    15    40 1   
    35    16    17 1   
    36    16    27 1   
    37    16    41 1   
    38    17    28 1   
    39    17    42 1   
    40    17    43 1   
    41    18    19 ar  
    42    18    22 1   
    43    19    20 ar  
    44    19    44 1   
    45    20    45 1   
    46    22    23 1   
    47    22    46 1   
    48    22    47 1   
    49    23    24 1   
    50    27    48 1   
    51    27    49 1   
    52    28    50 1   
@<TRIPOS>SUBSTRUCTURE
     1 J6T         1 TEMP              0 ****  ****    0 ROOT
