@<TRIPOS>MOLECULE
J6U
   94   100     1     0     0
SMALL
No Charge or Current Charge


@<TRIPOS>ATOM
      1 N1          17.0230   -34.9580  -105.9650 nv         1 J6U      -1.093000
      2 N3          11.4670   -29.9390  -109.8610 n          1 J6U      -0.384800
      3 C4          13.3860   -34.4800  -106.2030 ca         1 J6U       0.038500
      4 C5          13.2890   -33.1030  -105.9200 ca         1 J6U      -0.387500
      5 C6          14.4490   -32.3530  -105.6520 ca         1 J6U       0.038500
      6 C7          10.5460   -30.4900  -107.5540 c6         1 J6U       0.104800
      7 C8          10.5430   -29.6190  -108.8390 c          1 J6U       0.575000
      8 C10         12.1650   -32.0250  -108.5600 c6         1 J6U       0.172800
      9 C13          9.3390   -29.1610  -114.4200 c3         1 J6U       0.077400
     10 C15          8.0590   -28.3110  -114.2110 c3         1 J6U      -0.044100
     11 C17          7.2870   -27.9180  -111.8140 ca         1 J6U      -0.156500
     12 C20          5.8110   -30.3010  -111.8290 ca         1 J6U       0.208500
     13 C21          6.5250   -29.9130  -112.9740 ca         1 J6U      -0.156500
     14 C22          9.9530   -29.4720  -118.1860 c          1 J6U       0.582600
     15 C24         11.4360   -27.7740  -117.1610 ca         1 J6U       0.187400
     16 C26         12.6090   -27.1870  -119.6630 ca         1 J6U      -0.128000
     17 C28         12.4460   -26.8000  -117.2720 ca         1 J6U      -0.103000
     18 C1          15.7040   -32.9840  -105.6680 ca         1 J6U      -0.218000
     19 C2          15.8000   -34.3510  -105.9490 ca         1 J6U       0.381000
     20 C3          14.6480   -35.0980  -106.2150 ca         1 J6U      -0.218000
     21 N2          11.7670   -31.3250  -107.3130 n3         1 J6U      -0.701500
     22 C9          12.4750   -31.0210  -109.7020 c6         1 J6U       0.119000
     23 C12         10.3880   -29.6850  -112.1660 c          1 J6U       0.592100
     24 O3           9.7570   -28.6870  -108.9640 o          1 J6U      -0.564000
     25 O4           9.6970   -30.6790  -111.9860 o          1 J6U      -0.596100
     26 N4          10.2960   -28.9270  -113.3140 ns         1 J6U      -0.495900
     27 C14          9.9450   -28.9380  -115.8140 cc         1 J6U       0.498900
     28 C16          7.2720   -28.7190  -112.9730 ca         1 J6U      -0.034300
     29 C18          6.5660   -28.3120  -110.6750 ca         1 J6U       0.208500
     30 C19          5.8270   -29.5030  -110.6770 ca         1 J6U      -0.201000
     31 F1           6.5780   -27.5350  -109.5710 f          1 J6U      -0.169000
     32 N5           9.4490   -29.6750  -116.9020 n          1 J6U      -0.273500
     33 C23         11.0170   -28.4510  -118.3130 ca         1 J6U      -0.199600
     34 N6          10.9040   -28.0040  -115.8900 nd         1 J6U      -0.641100
     35 C25         11.6020   -28.1600  -119.5650 ca         1 J6U      -0.039000
     36 C27         13.0330   -26.5050  -118.5130 ca         1 J6U      -0.070000
     37 O5           9.5440   -30.1020  -119.1540 o          1 J6U      -0.512000
     38 C29          8.4060   -30.6370  -116.6980 ca         1 J6U       0.075600
     39 C30          8.7230   -31.9330  -116.2530 ca         1 J6U      -0.116500
     40 C31          7.7180   -32.9060  -116.1240 ca         1 J6U      -0.010000
     41 C32          6.3900   -32.5980  -116.4860 ca         1 J6U      -0.297500
     42 C33          6.0830   -31.3180  -116.9900 ca         1 J6U      -0.010000
     43 C34          7.0950   -30.3520  -117.1160 ca         1 J6U      -0.116500
     44 S2           5.0960   -33.8440  -116.3270 sy         1 J6U       1.152600
     45 N7           5.1710   -34.6710  -117.8200 n3         1 J6U      -0.713500
     46 O6           3.7790   -33.1980  -116.2890 o          1 J6U      -0.528000
     47 C35          6.3710   -35.5440  -118.0100 c6         1 J6U       0.150300
     48 C36          6.2830   -36.3590  -119.3320 c6         1 J6U       0.154600
     49 O7           6.0790   -35.4720  -120.4570 os         1 J6U      -0.440000
     50 C37          4.8790   -34.6730  -120.3260 c6         1 J6U       0.154600
     51 C38          4.9400   -33.8200  -119.0270 c6         1 J6U       0.150300
     52 O8           5.4800   -34.8190  -115.3000 o          1 J6U      -0.528000
     53 H6          17.1050   -35.8920  -106.3590 hn         1 J6U       0.478000
     54 H5          17.8630   -34.3830  -105.9670 hn         1 J6U       0.478000
     55 H3          12.4970   -35.0730  -106.4140 ha         1 J6U       0.131000
     56 H4          14.3830   -31.2870  -105.4380 ha         1 J6U       0.131000
     57 H7           9.6560   -31.1300  -107.6380 h1         1 J6U       0.087700
     58 H8          10.3770   -29.8010  -106.7140 h1         1 J6U       0.087700
     59 H12         13.0620   -32.6420  -108.4120 h1         1 J6U       0.069200
     60 H11         11.3630   -32.7030  -108.8890 h1         1 J6U       0.069200
     61 H16          9.0450   -30.2130  -114.3510 h1         1 J6U       0.103700
     62 H18          8.3370   -27.2510  -114.1620 hc         1 J6U       0.063700
     63 H17          7.4110   -28.4060  -115.0900 hc         1 J6U       0.063700
     64 H19          7.8580   -26.9940  -111.7900 ha         1 J6U       0.136500
     65 H21          6.5010   -30.5460  -113.8580 ha         1 J6U       0.136500
     66 H23         13.0590   -26.9620  -120.6280 ha         1 J6U       0.124000
     67 H25         12.7770   -26.2680  -116.3840 ha         1 J6U       0.133000
     68 H1          16.5980   -32.4040  -105.4620 ha         1 J6U       0.118500
     69 H2          14.7220   -36.1590  -106.4330 ha         1 J6U       0.118500
     70 H9          12.5780   -31.5740  -110.6460 h1         1 J6U       0.056200
     71 H10         13.4470   -30.5510  -109.4930 h1         1 J6U       0.056200
     72 H15         10.9400   -28.1480  -113.4080 hn         1 J6U       0.339500
     73 H20          5.2710   -29.8040  -109.7950 ha         1 J6U       0.146000
     74 H22         11.2790   -28.6840  -120.4630 ha         1 J6U       0.138000
     75 H24         13.8120   -25.7490  -118.5820 ha         1 J6U       0.121000
     76 H26          9.7490   -32.1840  -115.9920 ha         1 J6U       0.133500
     77 H27          7.9770   -33.8960  -115.7510 ha         1 J6U       0.142000
     78 H28          5.0670   -31.0700  -117.2950 ha         1 J6U       0.142000
     79 H29          6.8550   -29.3730  -117.5250 ha         1 J6U       0.133500
     80 H31          7.2900   -34.9400  -118.0350 h1         1 J6U       0.065200
     81 H32          6.4750   -36.2560  -117.1790 h1         1 J6U       0.065200
     82 H33          7.2120   -36.9270  -119.4840 h1         1 J6U       0.058700
     83 H34          5.4500   -37.0740  -119.2770 h1         1 J6U       0.058700
     84 H35          4.7850   -34.0160  -121.2010 h1         1 J6U       0.058700
     85 H36          4.0020   -35.3350  -120.2980 h1         1 J6U       0.058700
     86 H38          3.9970   -33.2630  -118.9360 h1         1 J6U       0.065200
     87 H37          5.7440   -33.0780  -119.1400 h1         1 J6U       0.065200
     88 S1          11.6890   -32.2870  -105.9120 sy         1 J6U       1.161600
     89 C11         11.4430   -29.1930  -111.1520 c3         1 J6U       0.022000
     90 O1          10.6200   -33.2700  -106.1180 o          1 J6U      -0.534500
     91 O2          11.6830   -31.3480  -104.7850 o          1 J6U      -0.534500
     92 F2           5.1000   -31.4490  -111.8390 f          1 J6U      -0.169000
     93 H14         11.2540   -28.1300  -110.9610 h1         1 J6U       0.074700
     94 H13         12.4250   -29.2660  -111.6370 h1         1 J6U       0.074700
@<TRIPOS>BOND
     1     1    19 1   
     2     1    53 1   
     3     1    54 1   
     4     2     7 1   
     5     2    22 1   
     6     2    89 1   
     7     3     4 ar  
     8     3    20 ar  
     9     3    55 1   
    10     4     5 ar  
    11     4    88 1   
    12     5    18 ar  
    13     5    56 1   
    14     6     7 1   
    15     6    21 1   
    16     6    57 1   
    17     6    58 1   
    18     7    24 2   
    19     8    21 1   
    20     8    22 1   
    21     8    59 1   
    22     8    60 1   
    23     9    10 1   
    24     9    26 1   
    25     9    27 1   
    26     9    61 1   
    27    10    28 1   
    28    10    62 1   
    29    10    63 1   
    30    11    28 ar  
    31    11    29 ar  
    32    11    64 1   
    33    12    13 ar  
    34    12    30 ar  
    35    12    92 1   
    36    13    28 ar  
    37    13    65 1   
    38    14    32 1   
    39    14    33 1   
    40    14    37 2   
    41    15    17 ar  
    42    15    33 ar  
    43    15    34 1   
    44    16    35 ar  
    45    16    36 ar  
    46    16    66 1   
    47    17    36 ar  
    48    17    67 1   
    49    18    19 ar  
    50    18    68 1   
    51    19    20 ar  
    52    20    69 1   
    53    21    88 1   
    54    22    70 1   
    55    22    71 1   
    56    23    25 2   
    57    23    26 1   
    58    23    89 1   
    59    26    72 1   
    60    27    32 1   
    61    27    34 2   
    62    29    30 ar  
    63    29    31 1   
    64    30    73 1   
    65    32    38 1   
    66    33    35 ar  
    67    35    74 1   
    68    36    75 1   
    69    38    39 ar  
    70    38    43 ar  
    71    39    40 ar  
    72    39    76 1   
    73    40    41 ar  
    74    40    77 1   
    75    41    42 ar  
    76    41    44 1   
    77    42    43 ar  
    78    42    78 1   
    79    43    79 1   
    80    44    45 1   
    81    44    46 2   
    82    44    52 2   
    83    45    47 1   
    84    45    51 1   
    85    47    48 1   
    86    47    80 1   
    87    47    81 1   
    88    48    49 1   
    89    48    82 1   
    90    48    83 1   
    91    49    50 1   
    92    50    51 1   
    93    50    84 1   
    94    50    85 1   
    95    51    86 1   
    96    51    87 1   
    97    88    90 2   
    98    88    91 2   
    99    89    93 1   
   100    89    94 1   
@<TRIPOS>SUBSTRUCTURE
     1 J6U         1 TEMP              0 ****  ****    0 ROOT
