@<TRIPOS>MOLECULE
J6U
   94   100     1     0     0
SMALL
abcg2


@<TRIPOS>ATOM
      1 N1          10.2310   -35.7220  -105.4400 nv         1 J6U      -1.093000
      2 N3          12.4330   -29.4580  -110.4680 n          1 J6U      -0.384800
      3 C4          11.5630   -32.3130  -105.5120 ca         1 J6U       0.038500
      4 C5          12.7290   -32.5020  -106.2520 ca         1 J6U      -0.387500
      5 C6          13.0450   -33.7720  -106.7330 ca         1 J6U       0.038500
      6 C7          11.9220   -29.9530  -108.1160 c6         1 J6U       0.104800
      7 C8          11.5980   -29.2750  -109.4320 c          1 J6U       0.575000
      8 C10         13.4880   -31.3290  -109.2900 c6         1 J6U       0.172800
      9 C13          9.3550   -29.1740  -114.2350 c3         1 J6U       0.077400
     10 C15          7.9150   -28.8460  -113.7890 c3         1 J6U      -0.044100
     11 C17          7.5750   -29.1100  -111.3140 ca         1 J6U      -0.156500
     12 C20          6.9190   -31.7650  -111.6400 ca         1 J6U       0.208500
     13 C21          7.2020   -31.0050  -112.7540 ca         1 J6U      -0.156500
     14 C22          9.4340   -28.7850  -118.0110 c          1 J6U       0.582600
     15 C24         10.3460   -26.8060  -116.8650 ca         1 J6U       0.187400
     16 C26         10.7910   -25.5590  -119.3200 ca         1 J6U      -0.128000
     17 C28         10.9060   -25.5240  -116.9100 ca         1 J6U      -0.103000
     18 C1          12.2090   -34.8370  -106.4770 ca         1 J6U      -0.218000
     19 C2          11.0290   -34.6650  -105.7300 ca         1 J6U       0.381000
     20 C3          10.7260   -33.3770  -105.2550 ca         1 J6U      -0.218000
     21 N2          13.2540   -30.5300  -108.0970 n3         1 J6U      -0.701500
     22 C9          13.5590   -30.3750  -110.4600 c6         1 J6U       0.119000
     23 C12         11.0300   -29.4900  -112.4750 c          1 J6U       0.592100
     24 O3          10.5920   -28.5860  -109.5120 o          1 J6U      -0.564000
     25 O4          10.8530   -30.6900  -112.3730 o          1 J6U      -0.596100
     26 N4          10.3260   -28.6880  -113.2940 ns         1 J6U      -0.495900
     27 C14          9.6200   -28.5670  -115.5970 cc         1 J6U       0.498900
     28 C16          7.5380   -29.6620  -112.5880 ca         1 J6U      -0.034300
     29 C18          7.2780   -29.9160  -110.2300 ca         1 J6U       0.208500
     30 C19          6.9470   -31.2500  -110.3560 ca         1 J6U      -0.201000
     31 F1           7.3080   -29.3850  -109.0010 f          1 J6U      -0.169000
     32 N5           9.2480   -29.2800  -116.7160 n          1 J6U      -0.273500
     33 C23         10.0140   -27.4510  -118.0620 ca         1 J6U      -0.199600
     34 N6          10.1360   -27.3980  -115.6430 nd         1 J6U      -0.641100
     35 C25         10.2410   -26.8220  -119.2890 ca         1 J6U      -0.039000
     36 C27         11.1230   -24.9110  -118.1250 ca         1 J6U      -0.070000
     37 O5           9.1260   -29.4530  -118.9750 o          1 J6U      -0.512000
     38 C29          8.6590   -30.5790  -116.6110 ca         1 J6U       0.075600
     39 C30          9.4600   -31.6820  -116.3530 ca         1 J6U      -0.116500
     40 C31          8.8800   -32.9320  -116.2090 ca         1 J6U      -0.010000
     41 C32          7.5050   -33.0630  -116.3560 ca         1 J6U      -0.297500
     42 C33          6.7040   -31.9650  -116.6410 ca         1 J6U      -0.010000
     43 C34          7.2880   -30.7160  -116.7690 ca         1 J6U      -0.116500
     44 S2           6.7650   -34.6730  -116.2420 sy         1 J6U       1.152600
     45 N7           6.8280   -35.3020  -117.7690 n3         1 J6U      -0.713500
     46 O6           5.3620   -34.4980  -115.9120 o          1 J6U      -0.528000
     47 C35          8.1500   -35.6380  -118.3000 c6         1 J6U       0.150300
     48 C36          7.9650   -36.5320  -119.5130 c6         1 J6U       0.154600
     49 O7           7.1560   -35.9230  -120.4900 os         1 J6U      -0.440000
     50 C37          5.8830   -35.6210  -119.9710 c6         1 J6U       0.154600
     51 C38          5.9690   -34.6830  -118.7800 c6         1 J6U       0.150300
     52 O8           7.6120   -35.5010  -115.4020 o          1 J6U      -0.528000
     53 H6           9.2970   -35.5480  -105.1090 hn         1 J6U       0.478000
     54 H5          10.3400   -36.5710  -105.9690 hn         1 J6U       0.478000
     55 H3          11.3040   -31.3360  -105.1260 ha         1 J6U       0.131000
     56 H4          13.9470   -33.9400  -107.3050 ha         1 J6U       0.131000
     57 H7          11.1410   -30.7090  -107.9480 h1         1 J6U       0.087700
     58 H8          11.8230   -29.1970  -107.3390 h1         1 J6U       0.087700
     59 H12         14.4340   -31.8610  -109.2220 h1         1 J6U       0.069200
     60 H11         12.6880   -32.0660  -109.4370 h1         1 J6U       0.069200
     61 H16          9.4670   -30.2560  -114.2790 h1         1 J6U       0.103700
     62 H18          7.8450   -27.7780  -113.5780 hc         1 J6U       0.063700
     63 H17          7.2180   -29.0540  -114.6030 hc         1 J6U       0.063700
     64 H19          7.8340   -28.0700  -111.1660 ha         1 J6U       0.136500
     65 H21          7.1700   -31.4530  -113.7410 ha         1 J6U       0.136500
     66 H23         10.9660   -25.0670  -120.2670 ha         1 J6U       0.124000
     67 H25         11.1600   -25.0310  -115.9810 ha         1 J6U       0.133000
     68 H1          12.4660   -35.8200  -106.8510 ha         1 J6U       0.118500
     69 H2           9.8250   -33.2190  -104.6740 ha         1 J6U       0.118500
     70 H9          13.5510   -30.9510  -111.3850 h1         1 J6U       0.056200
     71 H10         14.4950   -29.8120  -110.4240 h1         1 J6U       0.056200
     72 H15         10.5300   -27.7000  -113.3210 hn         1 J6U       0.339500
     73 H20          6.7190   -31.8620  -109.4940 ha         1 J6U       0.146000
     74 H22          9.9820   -27.3290  -120.2090 ha         1 J6U       0.138000
     75 H24         11.5550   -23.9190  -118.1550 ha         1 J6U       0.121000
     76 H26         10.5300   -31.5630  -116.2420 ha         1 J6U       0.133500
     77 H27          9.5040   -33.7840  -115.9790 ha         1 J6U       0.142000
     78 H28          5.6330   -32.0670  -116.7500 ha         1 J6U       0.142000
     79 H29          6.6740   -29.8490  -116.9740 ha         1 J6U       0.133500
     80 H31          8.7000   -34.7320  -118.5860 h1         1 J6U       0.065200
     81 H32          8.7320   -36.1740  -117.5530 h1         1 J6U       0.065200
     82 H33          8.9380   -36.7280  -119.9650 h1         1 J6U       0.058700
     83 H34          7.5370   -37.4920  -119.1940 h1         1 J6U       0.058700
     84 H35          5.3080   -35.1430  -120.7640 h1         1 J6U       0.058700
     85 H36          5.3580   -36.5370  -119.6700 h1         1 J6U       0.058700
     86 H38          4.9680   -34.5320  -118.3810 h1         1 J6U       0.065200
     87 H37          6.3690   -33.7110  -119.0940 h1         1 J6U       0.065200
     88 S1          13.7660   -31.1410  -106.6310 sy         1 J6U       1.161600
     89 C11         12.1310   -28.7780  -111.7000 c3         1 J6U       0.022000
     90 O1          13.5250   -30.0830  -105.6620 o          1 J6U      -0.534500
     91 O2          15.1200   -31.6250  -106.8460 o          1 J6U      -0.534500
     92 F2           6.6050   -33.0570  -111.7980 f          1 J6U      -0.169000
     93 H14         11.8740   -27.7340  -111.5140 h1         1 J6U       0.074700
     94 H13         13.0300   -28.7750  -112.3210 h1         1 J6U       0.074700
@<TRIPOS>BOND
     1     1    19 1   
     2     1    53 1   
     3     1    54 1   
     4     2     7 1   
     5     2    22 1   
     6     2    89 1   
     7     3     4 ar  
     8     3    20 ar  
     9     3    55 1   
    10     4     5 ar  
    11     4    88 1   
    12     5    18 ar  
    13     5    56 1   
    14     6     7 1   
    15     6    21 1   
    16     6    57 1   
    17     6    58 1   
    18     7    24 2   
    19     8    21 1   
    20     8    22 1   
    21     8    59 1   
    22     8    60 1   
    23     9    10 1   
    24     9    26 1   
    25     9    27 1   
    26     9    61 1   
    27    10    28 1   
    28    10    62 1   
    29    10    63 1   
    30    11    28 ar  
    31    11    29 ar  
    32    11    64 1   
    33    12    13 ar  
    34    12    30 ar  
    35    12    92 1   
    36    13    28 ar  
    37    13    65 1   
    38    14    32 1   
    39    14    33 1   
    40    14    37 2   
    41    15    17 ar  
    42    15    33 ar  
    43    15    34 1   
    44    16    35 ar  
    45    16    36 ar  
    46    16    66 1   
    47    17    36 ar  
    48    17    67 1   
    49    18    19 ar  
    50    18    68 1   
    51    19    20 ar  
    52    20    69 1   
    53    21    88 1   
    54    22    70 1   
    55    22    71 1   
    56    23    25 2   
    57    23    26 1   
    58    23    89 1   
    59    26    72 1   
    60    27    32 1   
    61    27    34 2   
    62    29    30 ar  
    63    29    31 1   
    64    30    73 1   
    65    32    38 1   
    66    33    35 ar  
    67    35    74 1   
    68    36    75 1   
    69    38    39 ar  
    70    38    43 ar  
    71    39    40 ar  
    72    39    76 1   
    73    40    41 ar  
    74    40    77 1   
    75    41    42 ar  
    76    41    44 1   
    77    42    43 ar  
    78    42    78 1   
    79    43    79 1   
    80    44    45 1   
    81    44    46 2   
    82    44    52 2   
    83    45    47 1   
    84    45    51 1   
    85    47    48 1   
    86    47    80 1   
    87    47    81 1   
    88    48    49 1   
    89    48    82 1   
    90    48    83 1   
    91    49    50 1   
    92    50    51 1   
    93    50    84 1   
    94    50    85 1   
    95    51    86 1   
    96    51    87 1   
    97    88    90 2   
    98    88    91 2   
    99    89    93 1   
   100    89    94 1   
@<TRIPOS>SUBSTRUCTURE
     1 J6U         1 TEMP              0 ****  ****    0 ROOT
