@<TRIPOS>MOLECULE
J6V
   39    40     1     0     0
SMALL
bcc


@<TRIPOS>ATOM
      1 C13         -4.1020    -0.7020     0.9980 ca         1 J6V      -0.104000
      2 C15         -6.3500    -0.3550     0.2640 ca         1 J6V       0.117900
      3 C17         -4.7120     1.2800    -0.2200 ca         1 J6V      -0.149000
      4 C16         -6.0370     0.8700    -0.3060 ca         1 J6V      -0.089300
      5 C01          3.8640     0.0210    -0.1960 ca         1 J6V       0.038000
      6 C02          3.4560     1.3470    -0.0590 ca         1 J6V      -0.290200
      7 C03          2.1120     1.6900     0.1320 ca         1 J6V       0.223100
      8 C04          1.1420     0.6530     0.1930 ca         1 J6V       0.028600
      9 C05          1.5540    -0.6580     0.0740 ca         1 J6V       0.005000
     10 C06          2.9060    -0.9520    -0.1200 ca         1 J6V      -0.292500
     11 N08         -0.1660     1.0720     0.3740 ns         1 J6V      -0.486100
     12 C09         -1.2990     0.2960     0.3320 c          1 J6V       0.801100
     13 O11         -1.2870    -0.9100     0.1740 o          1 J6V      -0.598100
     14 C12         -3.7410     0.5120     0.4210 ca         1 J6V       0.056600
     15 C14         -5.4150    -1.1380     0.9080 ca         1 J6V      -0.146000
     16 C18         -7.0760     1.6930    -1.0050 c3         1 J6V      -0.042800
     17 F19         -7.6210    -0.7920     0.1880 f          1 J6V      -0.142900
     18 S20          3.3740    -2.6510    -0.2880 sy         1 J6V       1.279200
     19 O21          2.3490    -3.3570    -1.0400 o          1 J6V      -0.603800
     20 O22          4.7450    -2.6800    -0.7790 o          1 J6V      -0.603800
     21 N23          3.2310    -3.1690     1.2690 n8         1 J6V      -0.897700
     22 N24          4.4640     2.3730    -0.1290 no         1 J6V       0.325200
     23 O25          5.6080     2.0520    -0.3100 o          1 J6V      -0.212500
     24 O26          4.1140     3.5370     0.0020 o          1 J6V      -0.212500
     25 H1          -3.3820    -1.3060     1.5290 ha         1 J6V       0.160000
     26 H2          -4.4300     2.2260    -0.6670 ha         1 J6V       0.131000
     27 H3           4.9050    -0.2190    -0.3530 ha         1 J6V       0.193000
     28 H4           0.8290    -1.4540     0.1270 ha         1 J6V       0.202000
     29 H5           2.3920     3.5530     0.2170 ho         1 J6V       0.495000
     30 H6          -0.2850     2.0660     0.5060 hn         1 J6V       0.336500
     31 H7          -2.3680     2.0330     0.4530 hn         1 J6V       0.317500
     32 H8          -5.7090    -2.0810     1.3500 ha         1 J6V       0.155000
     33 H9          -7.9440     1.8740    -0.3710 hc         1 J6V       0.049367
     34 H10         -6.6690     2.6590    -1.2970 hc         1 J6V       0.049367
     35 H11         -7.4320     1.1960    -1.9080 hc         1 J6V       0.049367
     36 H12          3.1290    -4.1790     1.3220 hn         1 J6V       0.422800
     37 H13          3.9930    -2.8570     1.8640 hn         1 J6V       0.422800
     38 N10         -2.4380     1.0280     0.4970 ns         1 J6V      -0.487100
     39 O07          1.6490     2.9180     0.2650 oh         1 J6V      -0.502100
@<TRIPOS>BOND
     1     1    14 ar  
     2     1    15 ar  
     3     1    25 1   
     4     2     4 ar  
     5     2    15 ar  
     6     2    17 1   
     7     3     4 ar  
     8     3    14 ar  
     9     3    26 1   
    10     4    16 1   
    11     5     6 ar  
    12     5    10 ar  
    13     5    27 1   
    14     6     7 ar  
    15     6    22 1   
    16     7     8 ar  
    17     7    39 1   
    18     8     9 ar  
    19     8    11 1   
    20     9    10 ar  
    21     9    28 1   
    22    10    18 1   
    23    11    12 1   
    24    11    30 1   
    25    12    13 2   
    26    12    38 1   
    27    14    38 1   
    28    15    32 1   
    29    16    33 1   
    30    16    34 1   
    31    16    35 1   
    32    18    19 2   
    33    18    20 2   
    34    18    21 1   
    35    21    36 1   
    36    21    37 1   
    37    22    23 1   
    38    22    24 1   
    39    29    39 1   
    40    31    38 1   
@<TRIPOS>SUBSTRUCTURE
     1 J6V         1 TEMP              0 ****  ****    0 ROOT
