@<TRIPOS>MOLECULE
J6V
   39    40     1     0     0
SMALL
No Charge or Current Charge


@<TRIPOS>ATOM
      1 C13         -4.3420    -1.0000     0.1400 ca         1 J6V      -0.086000
      2 C15         -6.6550    -0.2440     0.0900 ca         1 J6V       0.153000
      3 C17         -4.8460     1.3700    -0.0650 ca         1 J6V      -0.131000
      4 C16         -6.2280     1.0920    -0.0310 ca         1 J6V      -0.089300
      5 C01          3.9720     0.0870    -0.0090 ca         1 J6V       0.056000
      6 C02          3.4690     1.4040    -0.1270 ca         1 J6V      -0.290200
      7 C03          2.0630     1.6010    -0.1370 ca         1 J6V       0.223100
      8 C04          1.1770     0.5030    -0.0300 ca         1 J6V      -0.064000
      9 C05          1.7020    -0.8020     0.0860 ca         1 J6V       0.023000
     10 C06          3.0930    -1.0050     0.0940 ca         1 J6V      -0.292500
     11 N08         -0.2270     0.7770    -0.0460 ns         1 J6V      -0.160000
     12 C09         -1.3480    -0.0360     0.0350 c          1 J6V       0.667100
     13 O11         -1.3060    -1.2560     0.1450 o          1 J6V      -0.598100
     14 C12         -3.8940     0.3350     0.0190 ca         1 J6V      -0.036000
     15 C14         -5.7180    -1.2840     0.1750 ca         1 J6V      -0.128000
     16 C18         -7.2420     2.2260    -0.1240 c3         1 J6V      -0.042800
     17 F19         -7.9750    -0.5390     0.1260 f          1 J6V      -0.178000
     18 S20          3.7520    -2.6650     0.2420 sy         1 J6V       1.137600
     19 O21          2.7560    -3.6590    -0.1490 o          1 J6V      -0.533000
     20 O22          5.1360    -2.7220    -0.2200 o          1 J6V      -0.533000
     21 N23          3.8760    -2.8610     1.8560 n8         1 J6V      -1.008100
     22 N24          4.4490     2.5360    -0.2340 no         1 J6V       0.705200
     23 O25          5.6560     2.2690    -0.2220 o          1 J6V      -0.402500
     24 O26          4.0110     3.6900    -0.3320 o          1 J6V      -0.402500
     25 H1          -3.6450    -1.8300     0.2090 ha         1 J6V       0.142000
     26 H2          -4.5100     2.4010    -0.1590 ha         1 J6V       0.113000
     27 H3           5.0470    -0.0970     0.0060 ha         1 J6V       0.175000
     28 H4           1.0470    -1.6650     0.1720 ha         1 J6V       0.184000
     29 H5           2.2650     3.4940    -0.3090 ho         1 J6V       0.534000
     30 H6          -0.4360     1.7630    -0.1330 hn         1 J6V       0.170000
     31 H7          -2.3740     1.7020    -0.1140 hn         1 J6V       0.151000
     32 H8          -6.0600    -2.3120     0.2680 ha         1 J6V       0.137000
     33 H9          -7.8800     2.2550     0.7680 hc         1 J6V       0.049367
     34 H10         -6.7560     3.2040    -0.2140 hc         1 J6V       0.049367
     35 H11         -7.8930     2.0990    -0.9970 hc         1 J6V       0.049367
     36 H12          3.3740    -3.7380     1.9730 hn         1 J6V       0.478000
     37 H13          4.8460    -3.1610     1.9300 hn         1 J6V       0.478000
     38 N10         -2.5200     0.7060    -0.0230 ns         1 J6V      -0.161000
     39 O07          1.5180     2.8510    -0.2480 oh         1 J6V      -0.541100
@<TRIPOS>BOND
     1     1    14 ar  
     2     1    15 ar  
     3     1    25 1   
     4     2     4 ar  
     5     2    15 ar  
     6     2    17 1   
     7     3     4 ar  
     8     3    14 ar  
     9     3    26 1   
    10     4    16 1   
    11     5     6 ar  
    12     5    10 ar  
    13     5    27 1   
    14     6     7 ar  
    15     6    22 1   
    16     7     8 ar  
    17     7    39 1   
    18     8     9 ar  
    19     8    11 1   
    20     9    10 ar  
    21     9    28 1   
    22    10    18 1   
    23    11    12 1   
    24    11    30 1   
    25    12    13 2   
    26    12    38 1   
    27    14    38 1   
    28    15    32 1   
    29    16    33 1   
    30    16    34 1   
    31    16    35 1   
    32    18    19 2   
    33    18    20 2   
    34    18    21 1   
    35    21    36 1   
    36    21    37 1   
    37    22    23 1   
    38    22    24 1   
    39    29    39 1   
    40    31    38 1   
@<TRIPOS>SUBSTRUCTURE
     1 J6V         1 TEMP              0 ****  ****    0 ROOT
