@<TRIPOS>MOLECULE
J6W
   22    23     1     0     0
SMALL
No Charge or Current Charge


@<TRIPOS>ATOM
      1 C10          3.3460     0.4660    -0.3960 c3         1 J6W       0.224800
      2 C01         -1.5650    -1.5940     0.0290 ca         1 J6W      -0.078000
      3 C02         -0.3960    -0.8270    -0.0770 ca         1 J6W      -0.171000
      4 C03         -0.4490     0.5520    -0.1150 ca         1 J6W      -0.069800
      5 C04         -1.6760     1.2300    -0.0480 ca         1 J6W      -0.073000
      6 C05         -2.8680     0.4820     0.0620 ca         1 J6W      -0.080300
      7 C06         -2.8070    -0.9310     0.0970 ca         1 J6W      -0.102000
      8 C07         -4.2120     1.1900     0.1330 c3         1 J6W      -0.045800
      9 C08          0.8560     1.1600    -0.2270 cc         1 J6W      -0.171200
     10 C09          1.8650     0.2100    -0.2690 cd         1 J6W      -0.059600
     11 O11          3.8200     1.2980     0.6710 oh         1 J6W      -0.654000
     12 S12          1.2570    -1.4710    -0.1760 ss         1 J6W       0.094400
     13 H1           3.8780    -0.4950    -0.3930 h1         1 J6W       0.034200
     14 H2           3.5350     0.9460    -1.3660 h1         1 J6W       0.034200
     15 H3          -1.5170    -2.6810     0.0570 ha         1 J6W       0.120000
     16 H4          -1.7040     2.3170    -0.0800 ha         1 J6W       0.113000
     17 H5          -3.7210    -1.5140     0.1780 ha         1 J6W       0.111000
     18 H6          -4.6370     1.3220    -0.8690 hc         1 J6W       0.042033
     19 H7          -4.9330     0.6210     0.7310 hc         1 J6W       0.042033
     20 H8          -4.1180     2.1830     0.5890 hc         1 J6W       0.042033
     21 H9           1.0440     2.2300    -0.2730 ha         1 J6W       0.201000
     22 H10          4.7830     1.4240     0.5240 ho         1 J6W       0.447000
@<TRIPOS>BOND
     1     1    10 1   
     2     1    11 1   
     3     1    13 1   
     4     1    14 1   
     5     2     3 ar  
     6     2     7 ar  
     7     2    15 1   
     8     3     4 ar  
     9     3    12 1   
    10     4     5 ar  
    11     4     9 1   
    12     5     6 ar  
    13     5    16 1   
    14     6     7 ar  
    15     6     8 1   
    16     7    17 1   
    17     8    18 1   
    18     8    19 1   
    19     8    20 1   
    20     9    10 2   
    21     9    21 1   
    22    10    12 1   
    23    11    22 1   
@<TRIPOS>SUBSTRUCTURE
     1 J6W         1 TEMP              0 ****  ****    0 ROOT
