@<TRIPOS>MOLECULE
J6W
   22    23     1     0     0
SMALL
abcg2


@<TRIPOS>ATOM
      1 C10          3.3020     0.7330    -0.3390 c3         1 J6W       0.224800
      2 C01         -1.4530    -1.4840     0.3500 ca         1 J6W      -0.078000
      3 C02         -0.3350    -0.6810     0.1410 ca         1 J6W      -0.171000
      4 C03         -0.4670     0.6910    -0.1300 ca         1 J6W      -0.069800
      5 C04         -1.7470     1.2530    -0.1960 ca         1 J6W      -0.073000
      6 C05         -2.8680     0.4670    -0.0000 ca         1 J6W      -0.080300
      7 C06         -2.7030    -0.9030     0.2750 ca         1 J6W      -0.102000
      8 C07         -4.2500     1.0480    -0.0910 c3         1 J6W      -0.045800
      9 C08          0.8100     1.3240    -0.2930 cc         1 J6W      -0.171200
     10 C09          1.8460     0.4660    -0.1630 cd         1 J6W      -0.059600
     11 O11          4.0160    -0.0540     0.5840 oh         1 J6W      -0.654000
     12 S12          1.3320    -1.1590     0.1850 ss         1 J6W       0.094400
     13 H1           3.5860     0.4900    -1.3700 h1         1 J6W       0.034200
     14 H2           3.4790     1.8070    -0.2040 h1         1 J6W       0.034200
     15 H3          -1.3490    -2.5410     0.5640 ha         1 J6W       0.120000
     16 H4          -1.8560     2.3120    -0.4010 ha         1 J6W       0.113000
     17 H5          -3.5800    -1.5190     0.4320 ha         1 J6W       0.111000
     18 H6          -4.7680     0.6910    -0.9840 hc         1 J6W       0.042033
     19 H7          -4.8600     0.7630     0.7660 hc         1 J6W       0.042033
     20 H8          -4.2240     2.1360    -0.1380 hc         1 J6W       0.042033
     21 H9           0.9360     2.3790    -0.5000 ha         1 J6W       0.201000
     22 H10          4.9320    -0.1000     0.2930 ho         1 J6W       0.447000
@<TRIPOS>BOND
     1     1    10 1   
     2     1    11 1   
     3     1    13 1   
     4     1    14 1   
     5     2     3 ar  
     6     2     7 ar  
     7     2    15 1   
     8     3     4 ar  
     9     3    12 1   
    10     4     5 ar  
    11     4     9 1   
    12     5     6 ar  
    13     5    16 1   
    14     6     7 ar  
    15     6     8 1   
    16     7    17 1   
    17     8    18 1   
    18     8    19 1   
    19     8    20 1   
    20     9    10 2   
    21     9    21 1   
    22    10    12 1   
    23    11    22 1   
@<TRIPOS>SUBSTRUCTURE
     1 J6W         1 TEMP              0 ****  ****    0 ROOT
