@<TRIPOS>MOLECULE
J6X
   25    27     1     0     0
SMALL
abcg2


@<TRIPOS>ATOM
      1 N1         -44.5150   -13.9760    77.4690 nc         1 J6X      -0.653000
      2 C4         -40.5560   -14.1720    72.8490 ca         1 J6X      -0.058000
      3 C5         -41.6360   -14.2090    73.7380 ca         1 J6X      -0.091800
      4 C6         -42.9140   -14.5440    73.2660 ca         1 J6X      -0.169000
      5 C7         -41.6530   -13.9380    75.1440 cc         1 J6X       0.118900
      6 C8         -42.8920   -14.0570    75.6970 cd         1 J6X      -0.150200
      7 C10        -43.4890   -13.3080    79.4070 cd         1 J6X      -0.288000
      8 C1         -43.1340   -14.8480    71.9250 ca         1 J6X      -0.084000
      9 C2         -42.0560   -14.8060    71.0620 ca         1 J6X      -0.093000
     10 C3         -40.7750   -14.4700    71.5200 ca         1 J6X      -0.118000
     11 C9         -43.2900   -13.8270    77.0600 cd         1 J6X       0.508200
     12 C11        -44.6470   -13.6850    78.7960 cc         1 J6X       0.305300
     13 C12        -45.9840   -13.7930    79.4480 c3         1 J6X      -0.119400
     14 S1         -44.1000   -14.5190    74.5330 ss         1 J6X       0.160400
     15 S2         -42.1900   -13.3100    78.2900 ss         1 J6X       0.019600
     16 H1         -39.5670   -13.9120    73.2030 ha         1 J6X       0.124000
     17 H3         -43.3440   -13.0300    80.4390 h4         1 J6X       0.160000
     18 H5         -44.1220   -15.1070    71.5670 ha         1 J6X       0.123000
     19 H6         -42.2050   -15.0350    70.0150 ha         1 J6X       0.114000
     20 H8         -39.9490   -14.4440    70.8210 ha         1 J6X       0.116000
     21 H10        -40.1350   -14.3020    76.2660 ho         1 J6X       0.465000
     22 H11        -46.7080   -13.1400    78.9590 hc         1 J6X       0.049700
     23 H12        -46.3680   -14.8120    79.3820 hc         1 J6X       0.049700
     24 H13        -45.9320   -13.5160    80.4990 hc         1 J6X       0.049700
     25 O1         -40.5560   -13.5470    75.8330 oh         1 J6X      -0.539100
@<TRIPOS>BOND
     1     1    11 2   
     2     1    12 1   
     3     2     3 ar  
     4     2    10 ar  
     5     2    16 1   
     6     3     4 ar  
     7     3     5 1   
     8     4     8 ar  
     9     4    14 1   
    10     5     6 2   
    11     5    25 1   
    12     6    11 1   
    13     6    14 1   
    14     7    12 2   
    15     7    15 1   
    16     7    17 1   
    17     8     9 ar  
    18     8    18 1   
    19     9    10 ar  
    20     9    19 1   
    21    10    20 1   
    22    11    15 1   
    23    12    13 1   
    24    13    22 1   
    25    13    23 1   
    26    13    24 1   
    27    21    25 1   
@<TRIPOS>SUBSTRUCTURE
     1 J6X         1 TEMP              0 ****  ****    0 ROOT
