@<TRIPOS>MOLECULE
J6X
   25    27     1     0     0
SMALL
No Charge or Current Charge


@<TRIPOS>ATOM
      1 N1         -44.5200   -13.9680    77.4760 nc         1 J6X      -0.653000
      2 C4         -40.5480   -14.2250    72.8370 ca         1 J6X      -0.058000
      3 C5         -41.6580   -14.2350    73.7010 ca         1 J6X      -0.091800
      4 C6         -42.9220   -14.5240    73.2170 ca         1 J6X      -0.169000
      5 C7         -41.6530   -13.9650    75.1240 cc         1 J6X       0.118900
      6 C8         -42.9310   -14.0610    75.6700 cd         1 J6X      -0.150200
      7 C10        -43.4290   -13.4240    79.4520 cd         1 J6X      -0.288000
      8 C1         -43.1360   -14.8140    71.8600 ca         1 J6X      -0.084000
      9 C2         -42.0330   -14.8070    70.9840 ca         1 J6X      -0.093000
     10 C3         -40.7420   -14.5130    71.4710 ca         1 J6X      -0.118000
     11 C9         -43.2630   -13.8500    77.0590 cd         1 J6X       0.508200
     12 C11        -44.6060   -13.7270    78.8200 cc         1 J6X       0.305300
     13 C12        -45.9510   -13.8130    79.4780 c3         1 J6X      -0.119400
     14 S1         -44.1860   -14.4850    74.4670 ss         1 J6X       0.160400
     15 S2         -42.0940   -13.4300    78.3170 ss         1 J6X       0.019600
     16 H1         -39.5520   -13.9980    73.2120 ha         1 J6X       0.124000
     17 H3         -43.2700   -13.2010    80.4990 h4         1 J6X       0.160000
     18 H5         -44.1340   -15.0390    71.4910 ha         1 J6X       0.123000
     19 H6         -42.1780   -15.0290    69.9290 ha         1 J6X       0.114000
     20 H8         -39.8940   -14.5100    70.7910 ha         1 J6X       0.116000
     21 H10        -40.6370   -13.5140    76.6690 ho         1 J6X       0.465000
     22 H11        -46.6470   -13.0910    79.0360 hc         1 J6X       0.049700
     23 H12        -46.3780   -14.8160    79.3620 hc         1 J6X       0.049700
     24 H13        -45.8790   -13.5990    80.5510 hc         1 J6X       0.049700
     25 O1         -40.4750   -13.6690    75.7170 oh         1 J6X      -0.539100
@<TRIPOS>BOND
     1     1    11 2   
     2     1    12 1   
     3     2     3 ar  
     4     2    10 ar  
     5     2    16 1   
     6     3     4 ar  
     7     3     5 1   
     8     4     8 ar  
     9     4    14 1   
    10     5     6 2   
    11     5    25 1   
    12     6    11 1   
    13     6    14 1   
    14     7    12 2   
    15     7    15 1   
    16     7    17 1   
    17     8     9 ar  
    18     8    18 1   
    19     9    10 ar  
    20     9    19 1   
    21    10    20 1   
    22    11    15 1   
    23    12    13 1   
    24    13    22 1   
    25    13    23 1   
    26    13    24 1   
    27    21    25 1   
@<TRIPOS>SUBSTRUCTURE
     1 J6X         1 TEMP              0 ****  ****    0 ROOT
