@<TRIPOS>MOLECULE
J6Z
   17    16     1     0     0
SMALL
bcc


@<TRIPOS>ATOM
      1 C1           0.6630    -0.7320    -0.4310 c3         1 J6Z      -0.215900
      2 S1          -0.8490     0.1860    -0.0180 s6         1 J6Z       1.203800
      3 C2           1.8950    -0.1920     0.2940 c3         1 J6Z      -0.030400
      4 O2          -1.9570    -0.5620    -0.6510 o          1 J6Z      -0.696867
      5 C3           0.4590    -2.2100    -0.1210 c3         1 J6Z      -0.049100
      6 O3          -0.9270     0.1850     1.4590 o          1 J6Z      -0.696867
      7 C4           2.3410     1.2190    -0.0670 c3         1 J6Z      -0.085100
      8 H1           0.7910    -0.6020    -1.5120 h1         1 J6Z       0.064700
      9 H2           1.7330    -0.2690     1.3720 hc         1 J6Z       0.022200
     10 H2A          2.7130    -0.8820     0.0670 hc         1 J6Z       0.022200
     11 H3          -0.3670    -2.6340    -0.6880 hc         1 J6Z       0.024033
     12 H3A          1.3610    -2.7690    -0.3750 hc         1 J6Z       0.024033
     13 H3B          0.2610    -2.3640     0.9410 hc         1 J6Z       0.024033
     14 H4           2.4340     1.3410    -1.1470 hc         1 J6Z       0.028700
     15 H4A          1.6450     1.9750     0.2900 hc         1 J6Z       0.028700
     16 H4B          3.3160     1.4280     0.3730 hc         1 J6Z       0.028700
     17 O31         -0.7020     1.5420    -0.5880 o          1 J6Z      -0.696867
@<TRIPOS>BOND
     1     1     2 1   
     2     1     3 1   
     3     1     5 1   
     4     1     8 1   
     5     2     4 1   
     6     2     6 1   
     7     2    17 1   
     8     3     7 1   
     9     3     9 1   
    10     3    10 1   
    11     5    11 1   
    12     5    12 1   
    13     5    13 1   
    14     7    14 1   
    15     7    15 1   
    16     7    16 1   
@<TRIPOS>SUBSTRUCTURE
     1 J6Z         1 TEMP              0 ****  ****    0 ROOT
