@<TRIPOS>MOLECULE
J6Z
   17    16     1     0     0
SMALL
No Charge or Current Charge


@<TRIPOS>ATOM
      1 C1           0.6320    -0.7200    -0.3990 c3         1 J6Z      -0.326700
      2 S1          -0.9140     0.2030    -0.0080 s6         1 J6Z       1.314600
      3 C2           1.9050    -0.1810     0.3260 c3         1 J6Z      -0.030400
      4 O2          -1.9720    -0.5680    -0.6780 o          1 J6Z      -0.696867
      5 C3           0.4590    -2.2400    -0.1320 c3         1 J6Z      -0.049100
      6 O3          -0.9870     0.1790     1.4610 o          1 J6Z      -0.696867
      7 C4           2.3720     1.2320    -0.0850 c3         1 J6Z      -0.085100
      8 H1           0.7670    -0.5870    -1.4780 h1         1 J6Z       0.064700
      9 H2           1.7580    -0.2100     1.4130 hc         1 J6Z       0.022200
     10 H2A          2.7350    -0.8660     0.1150 hc         1 J6Z       0.022200
     11 H3          -0.3650    -2.6590    -0.7210 hc         1 J6Z       0.024033
     12 H3A          1.3680    -2.7880    -0.4100 hc         1 J6Z       0.024033
     13 H3B          0.2590    -2.4330     0.9290 hc         1 J6Z       0.024033
     14 H4           2.4250     1.3240    -1.1760 hc         1 J6Z       0.028700
     15 H4A          1.7000     2.0050     0.3040 hc         1 J6Z       0.028700
     16 H4B          3.3710     1.4300     0.3220 hc         1 J6Z       0.028700
     17 O31         -0.7020     1.5390    -0.5850 o          1 J6Z      -0.696867
@<TRIPOS>BOND
     1     1     2 1   
     2     1     3 1   
     3     1     5 1   
     4     1     8 1   
     5     2     4 1   
     6     2     6 1   
     7     2    17 1   
     8     3     7 1   
     9     3     9 1   
    10     3    10 1   
    11     5    11 1   
    12     5    12 1   
    13     5    13 1   
    14     7    14 1   
    15     7    15 1   
    16     7    16 1   
@<TRIPOS>SUBSTRUCTURE
     1 J6Z         1 TEMP              0 ****  ****    0 ROOT
