@<TRIPOS>MOLECULE
J71
   36    37     1     0     0
SMALL
bcc


@<TRIPOS>ATOM
      1 N1          -5.1620    -1.2400     0.1330 nb         1 J71      -0.859000
      2 C2          -4.2120    -2.1610     0.1570 ca         1 J71       0.775900
      3 N3          -2.9200    -1.9760     0.0900 nb         1 J71      -0.833000
      4 C4          -2.4690    -0.7130    -0.0020 ca         1 J71       0.787200
      5 C5          -3.4040     0.3700    -0.0000 ca         1 J71      -0.553800
      6 C6          -4.7750     0.0200     0.0530 ca         1 J71       0.781600
      7 N7          -1.1530    -0.5740    -0.0730 nu         1 J71      -0.829900
      8 C8           1.1740    -1.1840    -0.0330 ca         1 J71      -0.071300
      9 C9           1.8500    -1.0070     1.1710 ca         1 J71      -0.128500
     10 C10          3.1400    -0.5070     1.1910 ca         1 J71      -0.029500
     11 C11          3.7510    -0.1730    -0.0100 ca         1 J71      -0.255500
     12 C12          3.0950    -0.3320    -1.2210 ca         1 J71      -0.029500
     13 C13          1.8050    -0.8420    -1.2240 ca         1 J71      -0.128500
     14 S14          5.4020     0.4660     0.0180 sy         1 J71       1.267200
     15 O15          5.6400     1.1380    -1.2520 o          1 J71      -0.610300
     16 O16          5.6080     1.2160     1.2480 o          1 J71      -0.610300
     17 N17          6.2790    -0.9240     0.1820 n8         1 J71      -0.894700
     18 N18         -2.9790     1.7260    -0.0450 no         1 J71       0.352200
     19 O19         -1.8000     1.9560    -0.2780 o          1 J71      -0.229000
     20 O20         -3.7750     2.6130     0.1510 o          1 J71      -0.229000
     21 O21         -5.6910     0.9500     0.0060 os         1 J71      -0.387100
     22 C22         -7.0680     0.5610     0.0290 c3         1 J71       0.137700
     23 C23         -0.2370    -1.7020    -0.0430 c3         1 J71       0.272100
     24 H2          -4.5480    -3.1890     0.2370 h5         1 J71       0.053100
     25 HN7         -0.7850     0.3580    -0.1810 hn         1 J71       0.492800
     26 H9           1.3670    -1.2660     2.1050 ha         1 J71       0.142000
     27 H10          3.6540    -0.3780     2.1340 ha         1 J71       0.159000
     28 H12          3.5710    -0.0680    -2.1550 ha         1 J71       0.159000
     29 H13          1.2910    -0.9770    -2.1670 ha         1 J71       0.142000
     30 HN17         6.3480    -1.4490    -0.6830 hn         1 J71       0.419800
     31 HN1A         7.2050    -0.7380     0.5570 hn         1 J71       0.419800
     32 H22         -7.3140    -0.0850    -0.8110 h1         1 J71       0.058367
     33 H22A        -7.3200     0.0550     0.9600 h1         1 J71       0.058367
     34 H22B        -7.6250     1.4900    -0.0450 h1         1 J71       0.058367
     35 H23         -0.4230    -2.3100     0.8440 h1         1 J71       0.070700
     36 H23A        -0.3990    -2.3440    -0.9110 h1         1 J71       0.070700
@<TRIPOS>BOND
     1     1     2 ar  
     2     1     6 ar  
     3     2     3 ar  
     4     2    24 1   
     5     3     4 ar  
     6     4     5 ar  
     7     4     7 1   
     8     5     6 ar  
     9     5    18 1   
    10     6    21 1   
    11     7    23 1   
    12     7    25 1   
    13     8     9 ar  
    14     8    13 ar  
    15     8    23 1   
    16     9    10 ar  
    17     9    26 1   
    18    10    11 ar  
    19    10    27 1   
    20    11    12 ar  
    21    11    14 1   
    22    12    13 ar  
    23    12    28 1   
    24    13    29 1   
    25    14    15 2   
    26    14    16 2   
    27    14    17 1   
    28    17    30 1   
    29    17    31 1   
    30    18    19 1   
    31    18    20 1   
    32    21    22 1   
    33    22    32 1   
    34    22    33 1   
    35    22    34 1   
    36    23    35 1   
    37    23    36 1   
@<TRIPOS>SUBSTRUCTURE
     1 J71         1 TEMP              0 ****  ****    0 ROOT
