@<TRIPOS>MOLECULE
J71
   36    37     1     0     0
SMALL
No Charge or Current Charge


@<TRIPOS>ATOM
      1 N1          -5.3140    -1.2760     0.0220 nb         1 J71      -0.333000
      2 C2          -4.4200    -2.2810     0.0360 ca         1 J71       0.249900
      3 N3          -3.0820    -2.1570     0.0380 nb         1 J71      -0.307000
      4 C4          -2.5960    -0.9070     0.0300 ca         1 J71       0.458900
      5 C5          -3.4390     0.2050     0.0300 ca         1 J71      -0.423200
      6 C6          -4.8190    -0.0220     0.0210 ca         1 J71       0.453300
      7 N7          -1.2170    -0.7850     0.0320 nu         1 J71      -0.885100
      8 C8           1.1800    -1.2740     0.0160 ca         1 J71      -0.071300
      9 C9           1.8320    -0.9360     1.2180 ca         1 J71      -0.110500
     10 C10          3.1250    -0.3850     1.1980 ca         1 J71      -0.011500
     11 C11          3.7790    -0.1630    -0.0320 ca         1 J71      -0.255500
     12 C12          3.1300    -0.5000    -1.2380 ca         1 J71      -0.011500
     13 C13          1.8370    -1.0510    -1.2110 ca         1 J71      -0.110500
     14 S14          5.4320     0.5420    -0.0620 sy         1 J71       1.125600
     15 O15          5.7300     1.1210    -1.3700 o          1 J71      -0.539500
     16 O16          5.7250     1.2420     1.1860 o          1 J71      -0.539500
     17 N17          6.3970    -0.7730     0.0010 n8         1 J71      -1.005100
     18 N18         -2.9280     1.5740     0.0600 no         1 J71       0.732200
     19 O19         -2.0220     1.8640    -0.7300 o          1 J71      -0.419000
     20 O20         -3.2630     2.2860     1.0120 o          1 J71      -0.419000
     21 O21         -5.6740     1.0580    -0.0230 os         1 J71      -0.410300
     22 C22         -7.1050     0.8820    -0.0230 c3         1 J71       0.160900
     23 C23         -0.2220    -1.8660     0.0420 c3         1 J71       0.272100
     24 H2          -4.8190    -3.2940     0.0400 h5         1 J71       0.053100
     25 HN7         -0.8670     0.1560    -0.1550 hn         1 J71       0.548000
     26 H9           1.3350    -1.0990     2.1720 ha         1 J71       0.124000
     27 H10          3.6130    -0.1320     2.1380 ha         1 J71       0.141000
     28 H12          3.6220    -0.3370    -2.1960 ha         1 J71       0.141000
     29 H13          1.3440    -1.3040    -2.1470 ha         1 J71       0.124000
     30 HN17         7.0010    -0.5950    -0.7980 hn         1 J71       0.475000
     31 HN1A         6.9980    -0.5210     0.7830 hn         1 J71       0.475000
     32 H22         -7.4290     0.3020    -0.8970 h1         1 J71       0.058367
     33 H22A        -7.4350     0.3600     0.8840 h1         1 J71       0.058367
     34 H22B        -7.6090     1.8550    -0.0570 h1         1 J71       0.058367
     35 H23         -0.3410    -2.4870     0.9420 h1         1 J71       0.070700
     36 H23A        -0.3590    -2.5210    -0.8310 h1         1 J71       0.070700
@<TRIPOS>BOND
     1     1     2 ar  
     2     1     6 ar  
     3     2     3 ar  
     4     2    24 1   
     5     3     4 ar  
     6     4     5 ar  
     7     4     7 1   
     8     5     6 ar  
     9     5    18 1   
    10     6    21 1   
    11     7    23 1   
    12     7    25 1   
    13     8     9 ar  
    14     8    13 ar  
    15     8    23 1   
    16     9    10 ar  
    17     9    26 1   
    18    10    11 ar  
    19    10    27 1   
    20    11    12 ar  
    21    11    14 1   
    22    12    13 ar  
    23    12    28 1   
    24    13    29 1   
    25    14    15 2   
    26    14    16 2   
    27    14    17 1   
    28    17    30 1   
    29    17    31 1   
    30    18    19 1   
    31    18    20 1   
    32    21    22 1   
    33    22    32 1   
    34    22    33 1   
    35    22    34 1   
    36    23    35 1   
    37    23    36 1   
@<TRIPOS>SUBSTRUCTURE
     1 J71         1 TEMP              0 ****  ****    0 ROOT
