@<TRIPOS>MOLECULE
J72
   37    40     1     0     0
SMALL
No Charge or Current Charge


@<TRIPOS>ATOM
      1 O1          -4.0260    -2.3140    -1.6910 oh         1 J72      -0.495000
      2 N2          -2.8800    -2.7010    -0.9730 n2         1 J72      -0.243700
      3 C3          -2.2580    -1.7850    -0.2670 cc         1 J72       0.354900
      4 C4          -1.0310    -2.1030     0.5240 c          1 J72       0.488700
      5 O5          -0.4300    -3.1680     0.6370 o          1 J72      -0.484000
      6 N6          -0.6710    -0.8860     1.1270 n          1 J72      -0.306000
      7 C7           0.6270    -0.6880     1.8010 c3         1 J72       0.178300
      8 C8           1.7960    -0.5370     0.8310 ca         1 J72      -0.115300
      9 C9           2.5250    -1.6780     0.4330 ca         1 J72      -0.086000
     10 C10          3.5950    -1.5570    -0.4680 ca         1 J72       0.141000
     11 F11          4.2830    -2.6570    -0.8430 f          1 J72      -0.175000
     12 C12          3.9510    -0.3030    -0.9850 ca         1 J72      -0.098000
     13 C13          3.2350     0.8450    -0.5950 ca         1 J72      -0.177300
     14 C14          3.6020     2.2170    -1.1630 c6         1 J72       0.200900
     15 O15          2.4880     3.1110    -0.9820 os         1 J72      -0.446000
     16 C16          2.0140     3.1420     0.3750 c6         1 J72       0.369600
     17 O17          1.4660     1.8510     0.7010 os         1 J72      -0.358100
     18 C18          2.1660     0.7270     0.3210 ca         1 J72       0.140100
     19 C19         -1.5520     0.1650     0.7550 ca         1 J72       0.083600
     20 C20         -1.6480     1.4610     1.2860 ca         1 J72      -0.120000
     21 C21         -2.7110     2.2840     0.8580 ca         1 J72      -0.109000
     22 C22         -3.6820     1.7810    -0.0340 ca         1 J72       0.128000
     23 F23         -4.7010     2.5770    -0.4260 f          1 J72      -0.178000
     24 C24         -3.6250     0.4490    -0.4880 ca         1 J72      -0.063000
     25 C25         -2.5540    -0.3600    -0.0560 ca         1 J72      -0.184900
     26 HO1         -4.3310    -3.1380    -2.1430 ho         1 J72       0.481000
     27 H7           0.5700     0.1930     2.4520 h1         1 J72       0.064200
     28 H7A          0.8120    -1.5470     2.4580 h1         1 J72       0.064200
     29 H9           2.2640    -2.6600     0.8180 ha         1 J72       0.142000
     30 H12          4.7780    -0.2260    -1.6880 ha         1 J72       0.134000
     31 H14          4.4850     2.6170    -0.6420 h1         1 J72       0.065200
     32 H14A         3.8340     2.1410    -2.2350 h1         1 J72       0.065200
     33 H16          2.8430     3.3800     1.0580 h2         1 J72       0.065700
     34 H16A         1.2370     3.9120     0.4870 h2         1 J72       0.065700
     35 H20         -0.9180     1.8350     1.9980 ha         1 J72       0.128000
     36 H21         -2.7930     3.3030     1.2270 ha         1 J72       0.132000
     37 H24         -4.4120     0.0730    -1.1350 ha         1 J72       0.150000
@<TRIPOS>BOND
     1     1     2 1   
     2     1    26 1   
     3     2     3 2   
     4     3     4 1   
     5     3    25 1   
     6     4     5 2   
     7     4     6 1   
     8     6     7 1   
     9     6    19 1   
    10     7     8 1   
    11     7    27 1   
    12     7    28 1   
    13     8     9 ar  
    14     8    18 ar  
    15     9    10 ar  
    16     9    29 1   
    17    10    11 1   
    18    10    12 ar  
    19    12    13 ar  
    20    12    30 1   
    21    13    14 1   
    22    13    18 ar  
    23    14    15 1   
    24    14    31 1   
    25    14    32 1   
    26    15    16 1   
    27    16    17 1   
    28    16    33 1   
    29    16    34 1   
    30    17    18 1   
    31    19    20 ar  
    32    19    25 ar  
    33    20    21 ar  
    34    20    35 1   
    35    21    22 ar  
    36    21    36 1   
    37    22    23 1   
    38    22    24 ar  
    39    24    25 ar  
    40    24    37 1   
@<TRIPOS>SUBSTRUCTURE
     1 J72         1 TEMP              0 ****  ****    0 ROOT
