@<TRIPOS>MOLECULE
J72
   37    40     1     0     0
SMALL
abcg2


@<TRIPOS>ATOM
      1 O1          -3.8560    -1.8070    -1.9580 oh         1 J72      -0.495000
      2 N2          -2.6950    -2.2310    -1.4480 n2         1 J72      -0.243700
      3 C3          -2.1930    -1.4370    -0.5900 cc         1 J72       0.354900
      4 C4          -0.8900    -1.8030     0.0550 c          1 J72       0.488700
      5 O5          -0.2260    -2.8000    -0.1140 o          1 J72      -0.484000
      6 N6          -0.5920    -0.7730     0.9000 n          1 J72      -0.306000
      7 C7           0.6070    -0.7660     1.7110 c3         1 J72       0.178300
      8 C8           1.8650    -0.6250     0.8950 ca         1 J72      -0.115300
      9 C9           2.8140    -1.6350     0.8800 ca         1 J72      -0.086000
     10 C10          3.9710    -1.4700     0.1420 ca         1 J72       0.141000
     11 F11          4.8870    -2.4550     0.1420 f          1 J72      -0.175000
     12 C12          4.2080    -0.3370    -0.6040 ca         1 J72      -0.098000
     13 C13          3.2580     0.6780    -0.6070 ca         1 J72      -0.177300
     14 C14          3.4420     1.9290    -1.4210 c6         1 J72       0.200900
     15 O15          2.2230     2.6380    -1.5210 os         1 J72      -0.446000
     16 C16          1.6110     2.7590    -0.2850 c6         1 J72       0.369600
     17 O17          1.1610     1.5060     0.1850 os         1 J72      -0.358100
     18 C18          2.1010     0.5320     0.1520 ca         1 J72       0.140100
     19 C19         -1.5870     0.2060     0.8710 ca         1 J72       0.083600
     20 C20         -1.6640     1.3810     1.5910 ca         1 J72      -0.120000
     21 C21         -2.7740     2.1980     1.4010 ca         1 J72      -0.109000
     22 C22         -3.7620     1.8260     0.5090 ca         1 J72       0.128000
     23 F23         -4.8240     2.6330     0.3460 f          1 J72      -0.178000
     24 C24         -3.7040     0.6540    -0.2240 ca         1 J72      -0.063000
     25 C25         -2.5980    -0.1590    -0.0300 ca         1 J72      -0.184900
     26 HO1         -4.1160    -2.4860    -2.5920 ho         1 J72       0.481000
     27 H7           0.5220     0.0460     2.4310 h1         1 J72       0.064200
     28 H7A          0.6470    -1.6900     2.2890 h1         1 J72       0.064200
     29 H9           2.6540    -2.5450     1.4460 ha         1 J72       0.142000
     30 H12          5.1140    -0.2450    -1.1910 ha         1 J72       0.134000
     31 H14          4.2230     2.5610    -0.9790 h1         1 J72       0.065200
     32 H14A         3.7540     1.6820    -2.4360 h1         1 J72       0.065200
     33 H16          2.2930     3.1990     0.4570 h2         1 J72       0.065700
     34 H16A         0.7280     3.3830    -0.3940 h2         1 J72       0.065700
     35 H20         -0.8920     1.6830     2.2840 ha         1 J72       0.128000
     36 H21         -2.8620     3.1260     1.9500 ha         1 J72       0.132000
     37 H24         -4.4980     0.3980    -0.9110 ha         1 J72       0.150000
@<TRIPOS>BOND
     1     1     2 1   
     2     1    26 1   
     3     2     3 2   
     4     3     4 1   
     5     3    25 1   
     6     4     5 2   
     7     4     6 1   
     8     6     7 1   
     9     6    19 1   
    10     7     8 1   
    11     7    27 1   
    12     7    28 1   
    13     8     9 ar  
    14     8    18 ar  
    15     9    10 ar  
    16     9    29 1   
    17    10    11 1   
    18    10    12 ar  
    19    12    13 ar  
    20    12    30 1   
    21    13    14 1   
    22    13    18 ar  
    23    14    15 1   
    24    14    31 1   
    25    14    32 1   
    26    15    16 1   
    27    16    17 1   
    28    16    33 1   
    29    16    34 1   
    30    17    18 1   
    31    19    20 ar  
    32    19    25 ar  
    33    20    21 ar  
    34    20    35 1   
    35    21    22 ar  
    36    21    36 1   
    37    22    23 1   
    38    22    24 ar  
    39    24    25 ar  
    40    24    37 1   
@<TRIPOS>SUBSTRUCTURE
     1 J72         1 TEMP              0 ****  ****    0 ROOT
