@<TRIPOS>MOLECULE
J73
   50    52     1     0     0
SMALL
bcc


@<TRIPOS>ATOM
      1 O42          8.5980    -0.0760    -1.9800 oh         1 J73      -0.603800
      2 C41          8.6470     0.1780    -0.6000 c3         1 J73       0.124100
      3 C39          7.2470     0.3450    -0.1180 cc         1 J73       0.257600
      4 N38          6.9430     0.6420     1.1620 nc         1 J73      -0.363000
      5 N37          5.6610     0.7230     1.2850 nd         1 J73      -0.205800
      6 C40          6.0730     0.2410    -0.8170 cd         1 J73      -0.215600
      7 N36          5.1240     0.4920     0.1040 na         1 J73       0.099400
      8 C35          3.6840     0.4400    -0.0550 c3         1 J73       0.050300
      9 C34          3.1180    -0.9300     0.3160 c3         1 J73      -0.042100
     10 C16          1.6300    -0.9620     0.1100 ca         1 J73      -0.122300
     11 C17          1.0890    -1.1830    -1.1550 ca         1 J73      -0.092000
     12 C18         -0.2780    -1.1750    -1.3620 ca         1 J73      -0.172000
     13 C13         -1.1470    -0.9360    -0.2990 ca         1 J73       0.142100
     14 C14         -0.6280    -0.7050     0.9700 ca         1 J73      -0.172000
     15 C15          0.7500    -0.7250     1.1580 ca         1 J73      -0.092000
     16 O1          -2.4680    -0.9430    -0.6080 os         1 J73      -0.364900
     17 C1          -3.4400    -1.0360     0.4050 c6         1 J73       0.312900
     18 C2          -4.7610    -1.3720    -0.2970 c6         1 J73       0.100100
     19 O2          -5.7480    -1.6690     0.6540 oh         1 J73      -0.564800
     20 C3          -5.2160    -0.1590    -1.1080 c6         1 J73       0.119100
     21 O3          -6.4880    -0.3420    -1.6830 oh         1 J73      -0.588800
     22 C4          -5.2820     1.0840    -0.2270 c6         1 J73       0.123100
     23 O4          -5.5560     2.2340    -0.9910 oh         1 J73      -0.599800
     24 C5          -3.9310     1.2950     0.4580 c6         1 J73       0.148100
     25 O5          -3.5480     0.1230     1.1600 os         1 J73      -0.399600
     26 C6          -3.9810     2.4210     1.4680 c3         1 J73       0.146400
     27 O6          -2.6970     2.6000     2.0160 oh         1 J73      -0.589800
     28 H42          9.4950    -0.2320    -2.2900 ho         1 J73       0.410000
     29 H411         9.1230    -0.6410    -0.0460 h1         1 J73       0.037700
     30 H412         9.2220     1.0830    -0.3670 h1         1 J73       0.037700
     31 H40          5.8420     0.0270    -1.8460 h4         1 J73       0.193000
     32 H351         3.2500     1.2200     0.5690 h1         1 J73       0.073200
     33 H352         3.4600     0.6820    -1.0930 h1         1 J73       0.073200
     34 H341         3.6020    -1.6950    -0.2970 hc         1 J73       0.062700
     35 H342         3.3620    -1.1510     1.3570 hc         1 J73       0.062700
     36 H17          1.7460    -1.3730    -1.9970 ha         1 J73       0.133000
     37 H15          1.1390    -0.5420     2.1530 ha         1 J73       0.133000
     38 H18         -0.6810    -1.3600    -2.3500 ha         1 J73       0.151500
     39 H14         -1.2660    -0.4900     1.8150 ha         1 J73       0.151500
     40 H1          -3.1700    -1.8290     1.1140 h2         1 J73       0.078700
     41 H2          -4.5920    -2.2190    -0.9760 h1         1 J73       0.049700
     42 HA          -5.5540    -2.5290     1.0390 ho         1 J73       0.406000
     43 H3          -4.4630     0.0240    -1.8860 h1         1 J73       0.060700
     44 HB          -6.3960    -0.8840    -2.4730 ho         1 J73       0.410000
     45 H4          -6.0490     0.9350     0.5480 h1         1 J73       0.070700
     46 HC          -6.3810     2.0820    -1.4640 ho         1 J73       0.424000
     47 H5          -3.1840     1.5400    -0.3110 h1         1 J73       0.070700
     48 H61C        -4.3340     3.3230     0.9580 h1         1 J73       0.037200
     49 H62C        -4.7250     2.1740     2.2390 h1         1 J73       0.037200
     50 H6          -2.7260     3.3720     2.5880 ho         1 J73       0.405000
@<TRIPOS>BOND
     1     1     2 1   
     2     1    28 1   
     3     2     3 1   
     4     2    29 1   
     5     2    30 1   
     6     3     4 1   
     7     3     6 2   
     8     4     5 2   
     9     5     7 1   
    10     6     7 1   
    11     6    31 1   
    12     7     8 1   
    13     8     9 1   
    14     8    32 1   
    15     8    33 1   
    16     9    10 1   
    17     9    34 1   
    18     9    35 1   
    19    10    11 ar  
    20    10    15 ar  
    21    11    12 ar  
    22    11    36 1   
    23    12    13 ar  
    24    12    38 1   
    25    13    14 ar  
    26    13    16 1   
    27    14    15 ar  
    28    14    39 1   
    29    15    37 1   
    30    16    17 1   
    31    17    18 1   
    32    17    25 1   
    33    17    40 1   
    34    18    19 1   
    35    18    20 1   
    36    18    41 1   
    37    19    42 1   
    38    20    21 1   
    39    20    22 1   
    40    20    43 1   
    41    21    44 1   
    42    22    23 1   
    43    22    24 1   
    44    22    45 1   
    45    23    46 1   
    46    24    25 1   
    47    24    26 1   
    48    24    47 1   
    49    26    27 1   
    50    26    48 1   
    51    26    49 1   
    52    27    50 1   
@<TRIPOS>SUBSTRUCTURE
     1 J73         1 TEMP              0 ****  ****    0 ROOT
