@<TRIPOS>MOLECULE
J73
   50    52     1     0     0
SMALL
No Charge or Current Charge


@<TRIPOS>ATOM
      1 O42          8.8340     1.3240    -1.5700 oh         1 J73      -0.666000
      2 C41          8.6520     0.3570    -0.5180 c3         1 J73       0.147300
      3 C39          7.2420     0.3760     0.0390 cc         1 J73       0.192300
      4 N38          7.0000     0.4700     1.3820 nc         1 J73      -0.363000
      5 N37          5.7040     0.4580     1.5720 nd         1 J73      -0.205800
      6 C40          6.0700     0.2980    -0.6490 cd         1 J73      -0.183000
      7 N36          5.1130     0.3540     0.3380 na         1 J73       0.120800
      8 C35          3.6530     0.3070     0.1750 c3         1 J73       0.079600
      9 C34          3.1030    -1.1300     0.0700 c3         1 J73      -0.042100
     10 C16          1.5900    -1.1480    -0.1040 ca         1 J73      -0.122300
     11 C17          1.0240    -1.1390    -1.3930 ca         1 J73      -0.074000
     12 C18         -0.3730    -1.1480    -1.5500 ca         1 J73      -0.154000
     13 C13         -1.2180    -1.1640    -0.4290 ca         1 J73       0.142100
     14 C14         -0.6510    -1.1740     0.8650 ca         1 J73      -0.154000
     15 C15          0.7460    -1.1640     1.0220 ca         1 J73      -0.074000
     16 O1          -2.5800    -1.1790    -0.6600 os         1 J73      -0.388100
     17 C1          -3.5350    -1.1250     0.4220 c6         1 J73       0.359300
     18 C2          -4.9920    -1.3690    -0.1120 c6         1 J73       0.123300
     19 O2          -5.9750    -1.4660     0.9540 oh         1 J73      -0.687000
     20 C3          -5.3850    -0.1940    -1.0570 c6         1 J73       0.142300
     21 O3          -6.7470    -0.3560    -1.4960 oh         1 J73      -0.651000
     22 C4          -5.2130     1.1770    -0.3320 c6         1 J73       0.146300
     23 O4          -5.5380     2.2520    -1.2390 oh         1 J73      -0.722000
     24 C5          -3.7620     1.3020     0.2310 c6         1 J73       0.171300
     25 O5          -3.4540     0.1620     1.0820 os         1 J73      -0.446000
     26 C6          -3.5640     2.6100     1.0670 c3         1 J73       0.169600
     27 O6          -2.2450     2.7320     1.6430 oh         1 J73      -0.712000
     28 H42          9.7690     1.2520    -1.8670 ho         1 J73       0.449000
     29 H411         8.8590    -0.6540    -0.8940 h1         1 J73       0.037700
     30 H412         9.3600     0.5510     0.2990 h1         1 J73       0.037700
     31 H40          5.8590     0.2140    -1.7070 h4         1 J73       0.175000
     32 H351         3.1870     0.8140     1.0290 h1         1 J73       0.073200
     33 H352         3.3870     0.8660    -0.7310 h1         1 J73       0.073200
     34 H341         3.5880    -1.6390    -0.7720 hc         1 J73       0.062700
     35 H342         3.3870    -1.6890     0.9700 hc         1 J73       0.062700
     36 H17          1.6640    -1.1240    -2.2730 ha         1 J73       0.115000
     37 H15          1.1730    -1.1680     2.0230 ha         1 J73       0.115000
     38 H18         -0.8040    -1.1430    -2.5470 ha         1 J73       0.133500
     39 H14         -1.2710    -1.1850     1.7560 ha         1 J73       0.133500
     40 H1          -3.2980    -1.9210     1.1440 h2         1 J73       0.078700
     41 H2          -4.9870    -2.3000    -0.6990 h1         1 J73       0.049700
     42 HA          -5.7490    -2.2560     1.4980 ho         1 J73       0.505000
     43 H3          -4.7110    -0.2110    -1.9270 h1         1 J73       0.060700
     44 HB          -7.1960    -0.7960    -0.7370 ho         1 J73       0.449000
     45 H4          -5.9030     1.1980     0.5250 h1         1 J73       0.070700
     46 HC          -6.3120     1.9240    -1.7580 ho         1 J73       0.523000
     47 H5          -3.0500     1.3280    -0.6060 h1         1 J73       0.070700
     48 H61C        -3.7640     3.4690     0.4130 h1         1 J73       0.037200
     49 H62C        -4.3230     2.6240     1.8610 h1         1 J73       0.037200
     50 H6          -2.2480     3.5470     2.1970 ho         1 J73       0.504000
@<TRIPOS>BOND
     1     1     2 1   
     2     1    28 1   
     3     2     3 1   
     4     2    29 1   
     5     2    30 1   
     6     3     4 1   
     7     3     6 2   
     8     4     5 2   
     9     5     7 1   
    10     6     7 1   
    11     6    31 1   
    12     7     8 1   
    13     8     9 1   
    14     8    32 1   
    15     8    33 1   
    16     9    10 1   
    17     9    34 1   
    18     9    35 1   
    19    10    11 ar  
    20    10    15 ar  
    21    11    12 ar  
    22    11    36 1   
    23    12    13 ar  
    24    12    38 1   
    25    13    14 ar  
    26    13    16 1   
    27    14    15 ar  
    28    14    39 1   
    29    15    37 1   
    30    16    17 1   
    31    17    18 1   
    32    17    25 1   
    33    17    40 1   
    34    18    19 1   
    35    18    20 1   
    36    18    41 1   
    37    19    42 1   
    38    20    21 1   
    39    20    22 1   
    40    20    43 1   
    41    21    44 1   
    42    22    23 1   
    43    22    24 1   
    44    22    45 1   
    45    23    46 1   
    46    24    25 1   
    47    24    26 1   
    48    24    47 1   
    49    26    27 1   
    50    26    48 1   
    51    26    49 1   
    52    27    50 1   
@<TRIPOS>SUBSTRUCTURE
     1 J73         1 TEMP              0 ****  ****    0 ROOT
