@<TRIPOS>MOLECULE
J74
   35    36     1     0     0
SMALL
bcc


@<TRIPOS>ATOM
      1 N1           4.7850    -2.2020     0.1030 nb         1 J74      -0.752000
      2 C2           3.4800    -2.4570     0.1350 ca         1 J74       0.749900
      3 N3           2.5060    -1.5890     0.0810 nb         1 J74      -0.799000
      4 C4           2.8150    -0.2830     0.0090 ca         1 J74       0.776200
      5 C5           4.1930     0.0970     0.0570 ca         1 J74      -0.520800
      6 C6           5.1250    -0.9370     0.0710 ca         1 J74       0.631300
      7 N7           1.7980     0.5600    -0.0690 nu         1 J74      -0.833900
      8 C8          -1.9400     0.9300    -0.0640 ca         1 J74      -0.031300
      9 C9          -2.5710     0.6710     1.1500 ca         1 J74      -0.144000
     10 C10         -3.8860     0.2370     1.1920 ca         1 J74      -0.024000
     11 C11         -4.5770     0.0680     0.0010 ca         1 J74      -0.267500
     12 C12         -3.9720     0.3220    -1.2230 ca         1 J74      -0.024000
     13 C13         -2.6550     0.7480    -1.2460 ca         1 J74      -0.144000
     14 S14         -6.2560    -0.4850     0.0270 sy         1 J74       1.267200
     15 O15         -6.5260    -1.2680    -1.1700 o          1 J74      -0.612300
     16 O16         -6.5040    -1.1000     1.3240 o          1 J74      -0.612300
     17 N17         -7.0690     0.9400    -0.1740 n8         1 J74      -0.890700
     18 N18          4.5790     1.4790     0.1040 no         1 J74       0.346200
     19 O19          5.5890     1.7810     0.6870 o          1 J74      -0.213500
     20 O20          3.8490     2.2860    -0.4390 o          1 J74      -0.213500
     21 CL21         6.8140    -0.6550    -0.0360 cl         1 J74      -0.093000
     22 C22          0.4120     0.1310    -0.0340 c3         1 J74       0.228800
     23 C23         -0.5000     1.3510    -0.0990 c3         1 J74      -0.061100
     24 H2           3.2000    -3.5020     0.2010 h5         1 J74       0.063100
     25 HN7          1.9880     1.5420    -0.1930 hn         1 J74       0.480800
     26 H9          -2.0310     0.8110     2.0780 ha         1 J74       0.138500
     27 H10         -4.3570     0.0350     2.1440 ha         1 J74       0.158000
     28 H12         -4.5120     0.1880    -2.1510 ha         1 J74       0.158000
     29 H13         -2.1790     0.9450    -2.1990 ha         1 J74       0.138500
     30 HN17        -7.0640     1.5140     0.6630 hn         1 J74       0.418800
     31 HN1A        -8.0240     0.7810    -0.4830 hn         1 J74       0.418800
     32 H22          0.2070    -0.5390    -0.8710 h1         1 J74       0.070200
     33 H22A         0.2230    -0.4320     0.8830 h1         1 J74       0.070200
     34 H23         -0.2980     1.9090    -1.0160 hc         1 J74       0.063200
     35 H23A        -0.2850     2.0160     0.7410 hc         1 J74       0.063200
@<TRIPOS>BOND
     1     1     2 ar  
     2     1     6 ar  
     3     2     3 ar  
     4     2    24 1   
     5     3     4 ar  
     6     4     5 ar  
     7     4     7 1   
     8     5     6 ar  
     9     5    18 1   
    10     6    21 1   
    11     7    22 1   
    12     7    25 1   
    13     8     9 ar  
    14     8    13 ar  
    15     8    23 1   
    16     9    10 ar  
    17     9    26 1   
    18    10    11 ar  
    19    10    27 1   
    20    11    12 ar  
    21    11    14 1   
    22    12    13 ar  
    23    12    28 1   
    24    13    29 1   
    25    14    15 2   
    26    14    16 2   
    27    14    17 1   
    28    17    30 1   
    29    17    31 1   
    30    18    19 1   
    31    18    20 1   
    32    22    23 1   
    33    22    32 1   
    34    22    33 1   
    35    23    34 1   
    36    23    35 1   
@<TRIPOS>SUBSTRUCTURE
     1 J74         1 TEMP              0 ****  ****    0 ROOT
