@<TRIPOS>MOLECULE
J74
   35    36     1     0     0
SMALL
No Charge or Current Charge


@<TRIPOS>ATOM
      1 N1           5.0590    -2.1420     0.0780 nb         1 J74      -0.226000
      2 C2           3.7690    -2.5260     0.0660 ca         1 J74       0.223900
      3 N3           2.6930    -1.7180     0.0400 nb         1 J74      -0.273000
      4 C4           2.9300    -0.3950     0.0280 ca         1 J74       0.447900
      5 C5           4.2340     0.1150     0.0530 ca         1 J74      -0.390200
      6 C6           5.2890    -0.8170     0.0750 ca         1 J74       0.303000
      7 N7           1.8130     0.4290     0.0020 nu         1 J74      -0.889100
      8 C8          -2.0000     0.8380    -0.0460 ca         1 J74      -0.031300
      9 C9          -2.6960     0.6520     1.1630 ca         1 J74      -0.126000
     10 C10         -4.0500     0.2740     1.1560 ca         1 J74      -0.006000
     11 C11         -4.7200     0.0770    -0.0700 ca         1 J74      -0.267500
     12 C12         -4.0250     0.2610    -1.2830 ca         1 J74      -0.006000
     13 C13         -2.6710     0.6390    -1.2660 ca         1 J74      -0.126000
     14 S14         -6.4500    -0.4040    -0.0920 sy         1 J74       1.125600
     15 O15         -6.7740    -1.1010    -1.3380 o          1 J74      -0.541500
     16 O16         -6.8500    -0.8990     1.2230 o          1 J74      -0.541500
     17 N17         -7.2000     1.0460    -0.2070 n8         1 J74      -1.001100
     18 N18          4.5070     1.5570     0.0780 no         1 J74       0.726200
     19 O19          5.2000     1.9910     1.0030 o          1 J74      -0.403500
     20 O20          3.8920     2.2750    -0.7190 o          1 J74      -0.403500
     21 Cl21         6.9860    -0.3400     0.0460 cl         1 J74      -0.093000
     22 C22          0.3990     0.0130    -0.0190 c3         1 J74       0.228800
     23 C23         -0.5310     1.2400    -0.0320 c3         1 J74      -0.061100
     24 H2           3.5770    -3.5980     0.0720 h5         1 J74       0.063100
     25 HN7          2.0140     1.4130    -0.1910 hn         1 J74       0.536000
     26 H9          -2.1880     0.7990     2.1140 ha         1 J74       0.120500
     27 H10         -4.5690     0.1350     2.1030 ha         1 J74       0.140000
     28 H12         -4.5270     0.1140    -2.2380 ha         1 J74       0.140000
     29 H13         -2.1440     0.7760    -2.2080 ha         1 J74       0.120500
     30 HN17        -6.4890     1.6860     0.1380 hn         1 J74       0.474000
     31 HN1A        -7.8630     0.9810     0.5610 hn         1 J74       0.474000
     32 H22          0.1960    -0.6000    -0.9080 h1         1 J74       0.070200
     33 H22A         0.1710    -0.5980     0.8670 h1         1 J74       0.070200
     34 H23         -0.3040     1.8570    -0.9110 hc         1 J74       0.063200
     35 H23A        -0.3200     1.8620     0.8470 hc         1 J74       0.063200
@<TRIPOS>BOND
     1     1     2 ar  
     2     1     6 ar  
     3     2     3 ar  
     4     2    24 1   
     5     3     4 ar  
     6     4     5 ar  
     7     4     7 1   
     8     5     6 ar  
     9     5    18 1   
    10     6    21 1   
    11     7    22 1   
    12     7    25 1   
    13     8     9 ar  
    14     8    13 ar  
    15     8    23 1   
    16     9    10 ar  
    17     9    26 1   
    18    10    11 ar  
    19    10    27 1   
    20    11    12 ar  
    21    11    14 1   
    22    12    13 ar  
    23    12    28 1   
    24    13    29 1   
    25    14    15 2   
    26    14    16 2   
    27    14    17 1   
    28    17    30 1   
    29    17    31 1   
    30    18    19 1   
    31    18    20 1   
    32    22    23 1   
    33    22    32 1   
    34    22    33 1   
    35    23    34 1   
    36    23    35 1   
@<TRIPOS>SUBSTRUCTURE
     1 J74         1 TEMP              0 ****  ****    0 ROOT
