@<TRIPOS>MOLECULE
J75
   47    49     1     0     0
SMALL
No Charge or Current Charge


@<TRIPOS>ATOM
      1 N1           3.2630    -2.6430     0.0220 nb         1 J75      -0.325000
      2 C2           2.1760    -3.4300     0.0210 ca         1 J75       0.251900
      3 N3           0.8980    -3.0180     0.0100 nb         1 J75      -0.331000
      4 C4           0.6940    -1.6930     0.0060 ca         1 J75       0.468900
      5 C5           1.7550    -0.7790     0.0010 ca         1 J75      -0.461200
      6 C6           3.0470    -1.3190     0.0070 ca         1 J75       0.465900
      7 N7          -0.6280    -1.2900    -0.0060 nu         1 J75      -0.892100
      8 C8          -3.0750    -1.2640     0.0360 ca         1 J75      -0.066300
      9 C9          -3.6550    -0.8410    -1.1760 ca         1 J75      -0.113000
     10 C10         -4.8030    -0.0300    -1.1740 ca         1 J75      -0.010000
     11 C11         -5.3830     0.3690     0.0490 ca         1 J75      -0.260500
     12 C12         -4.8030    -0.0500     1.2650 ca         1 J75      -0.010000
     13 C13         -3.6550    -0.8610     1.2550 ca         1 J75      -0.113000
     14 S14         -6.8500     1.4030     0.0640 sy         1 J75       1.124600
     15 O15         -6.9360     2.1550     1.3170 o          1 J75      -0.540500
     16 O16         -7.0440     2.0180    -1.2470 o          1 J75      -0.540500
     17 N17         -8.0470     0.2900     0.1530 n8         1 J75      -1.003100
     18 N18          1.5230     0.6780    -0.0100 no         1 J75       0.733200
     19 O19          0.5740     1.1250     0.6440 o          1 J75      -0.449500
     20 O20          2.2880     1.3870    -0.6730 o          1 J75      -0.449500
     21 N21          4.1790    -0.5260     0.0100 nu         1 J75      -0.883100
     22 C22          5.5800    -0.9570    -0.0150 c3         1 J75       0.279100
     23 C23          6.4800     0.2700    -0.0460 ca         1 J75      -0.127300
     24 C24          6.9040     0.8710     1.1560 ca         1 J75      -0.088000
     25 C25          7.7320     2.0070     1.1270 ca         1 J75      -0.111500
     26 C26          8.1400     2.5490    -0.1030 ca         1 J75      -0.094000
     27 C27          7.7180     1.9560    -1.3050 ca         1 J75      -0.111500
     28 C28          6.8900     0.8200    -1.2770 ca         1 J75      -0.088000
     29 C29         -1.8280    -2.1380     0.0280 c3         1 J75       0.270100
     30 H2           2.3470    -4.5050     0.0290 h5         1 J75       0.048100
     31 HN7         -0.7630    -0.2940     0.1770 hn         1 J75       0.544000
     32 H9          -3.2120    -1.1390    -2.1240 ha         1 J75       0.124500
     33 H10         -5.2330     0.2870    -2.1230 ha         1 J75       0.140500
     34 H12         -5.2380     0.2480     2.2170 ha         1 J75       0.140500
     35 H13         -3.2150    -1.1770     2.1980 ha         1 J75       0.124500
     36 HN17        -7.5910    -0.5480    -0.2000 hn         1 J75       0.473500
     37 HN1A        -8.6430     0.5860    -0.6170 hn         1 J75       0.473500
     38 HN21         4.0010     0.4610    -0.1860 hn         1 J75       0.544000
     39 H22          5.8110    -1.5620     0.8730 h1         1 J75       0.067200
     40 H22A         5.7750    -1.5780    -0.9010 h1         1 J75       0.067200
     41 H24          6.5890     0.4590     2.1130 ha         1 J75       0.116000
     42 H25          8.0560     2.4670     2.0580 ha         1 J75       0.117000
     43 H26          8.7800     3.4290    -0.1250 ha         1 J75       0.116000
     44 H27          8.0320     2.3760    -2.2580 ha         1 J75       0.117000
     45 H28          6.5670     0.3680    -2.2130 ha         1 J75       0.116000
     46 H29         -1.8520    -2.8020    -0.8480 h1         1 J75       0.072200
     47 H29A        -1.8220    -2.7740     0.9240 h1         1 J75       0.072200
@<TRIPOS>BOND
     1     1     2 ar  
     2     1     6 ar  
     3     2     3 ar  
     4     2    30 1   
     5     3     4 ar  
     6     4     5 ar  
     7     4     7 1   
     8     5     6 ar  
     9     5    18 1   
    10     6    21 1   
    11     7    29 1   
    12     7    31 1   
    13     8     9 ar  
    14     8    13 ar  
    15     8    29 1   
    16     9    10 ar  
    17     9    32 1   
    18    10    11 ar  
    19    10    33 1   
    20    11    12 ar  
    21    11    14 1   
    22    12    13 ar  
    23    12    34 1   
    24    13    35 1   
    25    14    15 2   
    26    14    16 2   
    27    14    17 1   
    28    17    36 1   
    29    17    37 1   
    30    18    19 1   
    31    18    20 1   
    32    21    22 1   
    33    21    38 1   
    34    22    23 1   
    35    22    39 1   
    36    22    40 1   
    37    23    24 ar  
    38    23    28 ar  
    39    24    25 ar  
    40    24    41 1   
    41    25    26 ar  
    42    25    42 1   
    43    26    27 ar  
    44    26    43 1   
    45    27    28 ar  
    46    27    44 1   
    47    28    45 1   
    48    29    46 1   
    49    29    47 1   
@<TRIPOS>SUBSTRUCTURE
     1 J75         1 TEMP              0 ****  ****    0 ROOT
