@<TRIPOS>MOLECULE
J75
   47    49     1     0     0
SMALL
bcc


@<TRIPOS>ATOM
      1 N1           3.1700    -2.3320    -0.0810 nb         1 J75      -0.851000
      2 C2           2.0840    -3.0690    -0.0340 ca         1 J75       0.777900
      3 N3           0.8390    -2.6790     0.1300 nb         1 J75      -0.857000
      4 C4           0.6160    -1.3640     0.2580 ca         1 J75       0.797200
      5 C5           1.7150    -0.4440     0.2190 ca         1 J75      -0.591800
      6 C6           3.0240    -1.0050     0.0430 ca         1 J75       0.794200
      7 N7          -0.6520    -1.0040     0.4160 nu         1 J75      -0.836900
      8 C8          -3.0460    -1.2160     0.2680 ca         1 J75      -0.066300
      9 C9          -3.3570    -0.6720    -0.9750 ca         1 J75      -0.131000
     10 C10         -4.5380     0.0270    -1.1660 ca         1 J75      -0.028000
     11 C11         -5.4110     0.1750    -0.0980 ca         1 J75      -0.260500
     12 C12         -5.1220    -0.3590     1.1500 ca         1 J75      -0.028000
     13 C13         -3.9360    -1.0520     1.3260 ca         1 J75      -0.131000
     14 S14         -6.9160     1.0840    -0.3090 sy         1 J75       1.266200
     15 O15         -7.1760     1.8730     0.8860 o          1 J75      -0.611300
     16 O16         -6.8450     1.7730    -1.5900 o          1 J75      -0.611300
     17 N17         -8.0270    -0.1380    -0.2920 n8         1 J75      -0.892700
     18 N18          1.5190     0.9400     0.3440 no         1 J75       0.353200
     19 O19          0.3870     1.3830     0.4860 o          1 J75      -0.259500
     20 O20          2.4810     1.6950     0.3100 o          1 J75      -0.259500
     21 N21          4.1430    -0.2960    -0.0080 nu         1 J75      -0.827900
     22 C22          5.4550    -0.8990    -0.1850 c3         1 J75       0.279100
     23 C23          6.4970     0.1840    -0.2120 ca         1 J75      -0.127300
     24 C24          7.1900     0.5290     0.9440 ca         1 J75      -0.106000
     25 C25          8.1340     1.5480     0.9220 ca         1 J75      -0.129500
     26 C26          8.3880     2.2350    -0.2580 ca         1 J75      -0.112000
     27 C27          7.6980     1.8980    -1.4160 ca         1 J75      -0.129500
     28 C28          6.7570     0.8770    -1.3910 ca         1 J75      -0.106000
     29 C29         -1.7500    -1.9520     0.4620 c3         1 J75       0.270100
     30 H2           2.2340    -4.1390    -0.1390 h5         1 J75       0.048100
     31 HN7         -0.8430    -0.0260     0.5730 hn         1 J75       0.488800
     32 H9          -2.6740    -0.7940    -1.8060 ha         1 J75       0.142500
     33 H10         -4.7680     0.4450    -2.1360 ha         1 J75       0.158500
     34 H12         -5.8040    -0.2390     1.9810 ha         1 J75       0.158500
     35 H13         -3.6990    -1.4640     2.2980 ha         1 J75       0.142500
     36 HN17        -8.0180    -0.6880    -1.1460 hn         1 J75       0.418300
     37 HN1A        -8.9630     0.2130    -0.1130 hn         1 J75       0.418300
     38 HN21         4.0740     0.7050     0.0880 hn         1 J75       0.488800
     39 H22          5.6520    -1.6020     0.6260 h1         1 J75       0.067200
     40 H22A         5.4740    -1.4720    -1.1140 h1         1 J75       0.067200
     41 H24          6.9960    -0.0060     1.8660 ha         1 J75       0.134000
     42 H25          8.6720     1.8040     1.8260 ha         1 J75       0.135000
     43 H26          9.1240     3.0280    -0.2760 ha         1 J75       0.134000
     44 H27          7.8940     2.4280    -2.3390 ha         1 J75       0.135000
     45 H28          6.2250     0.6130    -2.2980 ha         1 J75       0.134000
     46 H29         -1.6180    -2.6950    -0.3250 h1         1 J75       0.072200
     47 H29A        -1.7550    -2.4900     1.4140 h1         1 J75       0.072200
@<TRIPOS>BOND
     1     1     2 ar  
     2     1     6 ar  
     3     2     3 ar  
     4     2    30 1   
     5     3     4 ar  
     6     4     5 ar  
     7     4     7 1   
     8     5     6 ar  
     9     5    18 1   
    10     6    21 1   
    11     7    29 1   
    12     7    31 1   
    13     8     9 ar  
    14     8    13 ar  
    15     8    29 1   
    16     9    10 ar  
    17     9    32 1   
    18    10    11 ar  
    19    10    33 1   
    20    11    12 ar  
    21    11    14 1   
    22    12    13 ar  
    23    12    34 1   
    24    13    35 1   
    25    14    15 2   
    26    14    16 2   
    27    14    17 1   
    28    17    36 1   
    29    17    37 1   
    30    18    19 1   
    31    18    20 1   
    32    21    22 1   
    33    21    38 1   
    34    22    23 1   
    35    22    39 1   
    36    22    40 1   
    37    23    24 ar  
    38    23    28 ar  
    39    24    25 ar  
    40    24    41 1   
    41    25    26 ar  
    42    25    42 1   
    43    26    27 ar  
    44    26    43 1   
    45    27    28 ar  
    46    27    44 1   
    47    28    45 1   
    48    29    46 1   
    49    29    47 1   
@<TRIPOS>SUBSTRUCTURE
     1 J75         1 TEMP              0 ****  ****    0 ROOT
