@<TRIPOS>MOLECULE
J76
  101   102     1     0     0
SMALL
No Charge or Current Charge


@<TRIPOS>ATOM
      1 C25         -6.6690    -7.1860     3.6010 c3         1 J76      -0.088100
      2 C24         -6.7240    -5.8360     2.8600 c3         1 J76      -0.075400
      3 C23         -5.5780    -5.6580     1.8410 c3         1 J76      -0.076400
      4 C22         -5.6340    -4.3050     1.1000 c3         1 J76      -0.074400
      5 C21         -4.4870    -4.1250     0.0810 c3         1 J76      -0.075400
      6 C20         -4.5510    -2.7700    -0.6540 c3         1 J76      -0.068400
      7 C19         -3.3970    -2.5600    -1.6620 c3         1 J76      -0.152400
      8 C30         -3.5280    -1.2020    -2.3580 c          1 J76       0.611100
      9 O2          -4.3120    -1.0050    -3.2750 o          1 J76      -0.597100
     10 N           -2.6790    -0.2300    -1.8880 ns         1 J76      -0.504900
     11 C1          -2.6710     1.1810    -2.3110 c3         1 J76       0.089700
     12 C           -3.9990     1.8940    -1.9170 c3         1 J76       0.145600
     13 OC1         -4.2120     1.7140    -0.5010 os         1 J76      -0.477000
     14 CG1         -5.3940     2.3190     0.0630 c6         1 J76       0.359300
     15 OG          -6.5840     1.7710    -0.5490 os         1 J76      -0.449000
     16 CG          -6.7820     0.3480    -0.3270 c6         1 J76       0.172300
     17 CG5         -8.0390    -0.1220    -1.1340 c3         1 J76       0.170600
     18 OG6         -7.9510     0.1480    -2.5480 oh         1 J76      -0.714000
     19 CG4         -6.9040     0.0280     1.2000 c6         1 J76       0.147300
     20 OG5         -8.0830     0.6040     1.8010 oh         1 J76      -0.714000
     21 CG3         -5.6460     0.5800     1.9320 c6         1 J76       0.140300
     22 OG4         -5.7740     0.3970     3.3560 oh         1 J76      -0.674000
     23 CG2         -5.4170     2.0920     1.6120 c6         1 J76       0.115300
     24 OG3         -4.1900     2.5420     2.2380 oh         1 J76      -0.711000
     25 C2          -1.4150     1.9680    -1.7930 c3         1 J76       0.127300
     26 O1          -1.3470     3.2210    -2.5070 oh         1 J76      -0.641000
     27 C3          -0.0450     1.1980    -1.9060 c3         1 J76       0.138300
     28 O32         -0.0270     0.0760    -1.0050 oh         1 J76      -0.634000
     29 C4           1.2020     2.0760    -1.5940 c3         1 J76      -0.111400
     30 C5           2.5570     1.3450    -1.7720 c3         1 J76      -0.061400
     31 C6           3.7740     2.2650    -1.5130 c3         1 J76      -0.161400
     32 C7           5.1020     1.5160    -1.6990 c          1 J76       0.606100
     33 O            5.5190     1.2270    -2.8140 o          1 J76      -0.574100
     34 N1           5.7730     1.2460    -0.5120 ns         1 J76      -0.150000
     35 C18          7.0020     0.5850    -0.2340 ca         1 J76      -0.020000
     36 C17          7.7930    -0.0450    -1.2190 ca         1 J76      -0.149500
     37 C16          8.9960    -0.6820    -0.8660 ca         1 J76      -0.080000
     38 C13          7.4380     0.5600     1.1040 ca         1 J76      -0.149500
     39 C14          8.6410    -0.0760     1.4570 ca         1 J76      -0.080000
     40 C15          9.4270    -0.7020     0.4730 ca         1 J76      -0.103300
     41 C8          10.7330    -1.3870     0.8520 c3         1 J76      -0.026100
     42 C9          11.9350    -0.4220     0.7830 c3         1 J76      -0.074400
     43 C10         13.2750    -1.0910     1.1620 c3         1 J76      -0.076400
     44 C11         14.4750    -0.1220     1.0920 c3         1 J76      -0.075400
     45 C12         15.8120    -0.7890     1.4710 c3         1 J76      -0.089100
     46 H1          -5.7300    -7.2850     4.1590 hc         1 J76       0.031367
     47 H2          -7.5000    -7.2670     4.3120 hc         1 J76       0.031367
     48 H3          -6.7410    -8.0210     2.8930 hc         1 J76       0.031367
     49 H4          -7.6880    -5.7530     2.3430 hc         1 J76       0.037200
     50 H5          -6.6850    -5.0240     3.5970 hc         1 J76       0.037200
     51 H6          -4.6160    -5.7440     2.3620 hc         1 J76       0.036200
     52 H7          -5.6190    -6.4730     1.1070 hc         1 J76       0.036200
     53 H8          -6.5960    -4.2200     0.5780 hc         1 J76       0.039200
     54 H9          -5.5950    -3.4910     1.8340 hc         1 J76       0.039200
     55 H10         -3.5250    -4.2090     0.6020 hc         1 J76       0.034200
     56 H11         -4.5260    -4.9380    -0.6560 hc         1 J76       0.034200
     57 H12         -5.5110    -2.6910    -1.1810 hc         1 J76       0.059200
     58 H13         -4.5250    -1.9630     0.0880 hc         1 J76       0.059200
     59 H14         -2.4490    -2.6100    -1.1120 hc         1 J76       0.050700
     60 H15         -3.4400    -3.3550    -2.4160 hc         1 J76       0.050700
     61 H16         -2.0030    -0.5110    -1.1860 hn         1 J76       0.309500
     62 H17         -2.6200     1.1780    -3.4080 h1         1 J76       0.094700
     63 H18         -3.9460     2.9600    -2.1740 h1         1 J76       0.050700
     64 H19         -4.8270     1.4570    -2.4890 h1         1 J76       0.050700
     65 H20         -5.3640     3.4020    -0.1290 h2         1 J76       0.070700
     66 H21         -5.9150    -0.1920    -0.7330 h1         1 J76       0.052700
     67 H22         -8.1630    -1.2010    -0.9660 h1         1 J76       0.036700
     68 H23         -8.9240     0.3750    -0.7140 h1         1 J76       0.036700
     69 H24         -8.8160    -0.1070    -2.9440 ho         1 J76       0.505000
     70 H25         -6.9210    -1.0650     1.3220 h1         1 J76       0.048700
     71 H26         -7.8660     0.6400     2.7650 ho         1 J76       0.522000
     72 H27         -4.7730     0.0190     1.5650 h1         1 J76       0.060700
     73 H28         -5.0880     0.9820     3.7530 ho         1 J76       0.469000
     74 H29         -6.2660     2.6650     2.0130 h1         1 J76       0.064700
     75 H30         -3.4710     2.3440     1.5900 ho         1 J76       0.512000
     76 H31         -1.5750     2.1730    -0.7250 h1         1 J76       0.077700
     77 H32         -1.0200     3.0340    -3.4140 ho         1 J76       0.438000
     78 H33          0.0460     0.8370    -2.9400 h1         1 J76       0.071700
     79 H34          0.3400     0.3940    -0.1530 ho         1 J76       0.436000
     80 H35          1.2060     2.9490    -2.2580 hc         1 J76       0.046700
     81 H36          1.1280     2.4650    -0.5700 hc         1 J76       0.046700
     82 H37          2.6100     0.4860    -1.0920 hc         1 J76       0.064200
     83 H38          2.6170     0.9450    -2.7930 hc         1 J76       0.064200
     84 H39          3.7400     3.0970    -2.2270 hc         1 J76       0.057200
     85 H40          3.7030     2.6550    -0.4900 hc         1 J76       0.057200
     86 H41          5.2940     1.5770     0.3150 hn         1 J76       0.146000
     87 H42          7.4950    -0.0580    -2.2620 ha         1 J76       0.127000
     88 H43          9.5960    -1.1600    -1.6370 ha         1 J76       0.112500
     89 H44          6.8430     1.0380     1.8800 ha         1 J76       0.127000
     90 H45          8.9620    -0.0810     2.4960 ha         1 J76       0.112500
     91 H46         10.6610    -1.8010     1.8650 hc         1 J76       0.045200
     92 H47         10.9170    -2.2400     0.1870 hc         1 J76       0.045200
     93 H48         12.0100    -0.0150    -0.2340 hc         1 J76       0.041700
     94 H49         11.7520     0.4270     1.4540 hc         1 J76       0.041700
     95 H50         13.1990    -1.4970     2.1790 hc         1 J76       0.037200
     96 H51         13.4570    -1.9390     0.4910 hc         1 J76       0.037200
     97 H52         14.5550     0.2850     0.0760 hc         1 J76       0.037200
     98 H53         14.2980     0.7270     1.7640 hc         1 J76       0.037200
     99 H54         15.7760    -1.1760     2.4960 hc         1 J76       0.031367
    100 H55         16.0360    -1.6220     0.7930 hc         1 J76       0.031367
    101 H56         16.6320    -0.0650     1.4060 hc         1 J76       0.031367
@<TRIPOS>BOND
     1     1     2 1   
     2     1    46 1   
     3     1    47 1   
     4     1    48 1   
     5     2     3 1   
     6     2    49 1   
     7     2    50 1   
     8     3     4 1   
     9     3    51 1   
    10     3    52 1   
    11     4     5 1   
    12     4    53 1   
    13     4    54 1   
    14     5     6 1   
    15     5    55 1   
    16     5    56 1   
    17     6     7 1   
    18     6    57 1   
    19     6    58 1   
    20     7     8 1   
    21     7    59 1   
    22     7    60 1   
    23     8     9 2   
    24     8    10 1   
    25    10    11 1   
    26    10    61 1   
    27    11    12 1   
    28    11    25 1   
    29    11    62 1   
    30    12    13 1   
    31    12    63 1   
    32    12    64 1   
    33    13    14 1   
    34    14    15 1   
    35    14    23 1   
    36    14    65 1   
    37    15    16 1   
    38    16    17 1   
    39    16    19 1   
    40    16    66 1   
    41    17    18 1   
    42    17    67 1   
    43    17    68 1   
    44    18    69 1   
    45    19    20 1   
    46    19    21 1   
    47    19    70 1   
    48    20    71 1   
    49    21    22 1   
    50    21    23 1   
    51    21    72 1   
    52    22    73 1   
    53    23    24 1   
    54    23    74 1   
    55    24    75 1   
    56    25    26 1   
    57    25    27 1   
    58    25    76 1   
    59    26    77 1   
    60    27    28 1   
    61    27    29 1   
    62    27    78 1   
    63    28    79 1   
    64    29    30 1   
    65    29    80 1   
    66    29    81 1   
    67    30    31 1   
    68    30    82 1   
    69    30    83 1   
    70    31    32 1   
    71    31    84 1   
    72    31    85 1   
    73    32    33 2   
    74    32    34 1   
    75    34    35 1   
    76    34    86 1   
    77    35    36 ar  
    78    35    38 ar  
    79    36    37 ar  
    80    36    87 1   
    81    37    40 ar  
    82    37    88 1   
    83    38    39 ar  
    84    38    89 1   
    85    39    40 ar  
    86    39    90 1   
    87    40    41 1   
    88    41    42 1   
    89    41    91 1   
    90    41    92 1   
    91    42    43 1   
    92    42    93 1   
    93    42    94 1   
    94    43    44 1   
    95    43    95 1   
    96    43    96 1   
    97    44    45 1   
    98    44    97 1   
    99    44    98 1   
   100    45    99 1   
   101    45   100 1   
   102    45   101 1   
@<TRIPOS>SUBSTRUCTURE
     1 J76         1 TEMP              0 ****  ****    0 ROOT
