@<TRIPOS>MOLECULE
J76
  101   102     1     0     0
SMALL
abcg2


@<TRIPOS>ATOM
      1 C25         -8.1870    -8.3870     1.6220 c3         1 J76      -0.088100
      2 C24         -7.7290    -7.4380     0.5230 c3         1 J76      -0.075400
      3 C23         -6.7310    -6.3970     1.0160 c3         1 J76      -0.076400
      4 C22         -6.2770    -5.4350    -0.0740 c3         1 J76      -0.074400
      5 C21         -5.2500    -4.4170     0.4050 c3         1 J76      -0.075400
      6 C20         -4.8270    -3.4510    -0.6930 c3         1 J76      -0.068400
      7 C19         -3.7560    -2.4730    -0.2300 c3         1 J76      -0.152400
      8 C30         -3.3320    -1.5080    -1.3160 c          1 J76       0.611100
      9 O2          -3.2900    -1.8340    -2.4950 o          1 J76      -0.597100
     10 N           -2.9910    -0.2830    -0.8810 ns         1 J76      -0.504900
     11 C1          -2.5580     0.8010    -1.7350 c3         1 J76       0.089700
     12 C           -3.7090     1.7820    -1.9110 c3         1 J76       0.145600
     13 OC1         -4.0320     2.3140    -0.6430 os         1 J76      -0.477000
     14 CG1         -5.2800     2.9170    -0.5540 c6         1 J76       0.359300
     15 OG          -6.3330     2.0000    -0.6650 os         1 J76      -0.449000
     16 CG          -6.3610     1.0050     0.3450 c6         1 J76       0.172300
     17 CG5         -7.4960     0.0530     0.0330 c3         1 J76       0.170600
     18 OG6         -7.2030    -0.6120    -1.1730 oh         1 J76      -0.714000
     19 CG4         -6.4790     1.6220     1.7330 c6         1 J76       0.147300
     20 OG5         -7.7440     2.2230     1.8630 oh         1 J76      -0.714000
     21 CG3         -5.3510     2.6350     1.9270 c6         1 J76       0.140300
     22 OG4         -5.5430     3.2500     3.1800 oh         1 J76      -0.674000
     23 CG2         -5.3640     3.6470     0.7890 c6         1 J76       0.115300
     24 OG3         -4.2970     4.5410     0.9870 oh         1 J76      -0.711000
     25 C2          -1.2800     1.4490    -1.1610 c3         1 J76       0.127300
     26 O1          -1.0870     2.7480    -1.6690 oh         1 J76      -0.641000
     27 C3          -0.0120     0.6060    -1.4120 c3         1 J76       0.138300
     28 O32         -0.1950    -0.7650    -1.1440 oh         1 J76      -0.634000
     29 C4           1.1880     1.1730    -0.6560 c3         1 J76      -0.111400
     30 C5           2.4830     0.4180    -0.9300 c3         1 J76      -0.061400
     31 C6           3.6460     1.0200    -0.1590 c3         1 J76      -0.161400
     32 C7           4.9440     0.2560    -0.3140 c          1 J76       0.606100
     33 O            5.0260    -0.7980    -0.9190 o          1 J76      -0.574100
     34 N1           5.9970     0.8560     0.3010 ns         1 J76      -0.150000
     35 C18          7.3130     0.4100     0.4570 ca         1 J76      -0.020000
     36 C17          7.8290    -0.7550    -0.1110 ca         1 J76      -0.149500
     37 C16          9.1520    -1.1090     0.1230 ca         1 J76      -0.080000
     38 C13          8.1580     1.1970     1.2460 ca         1 J76      -0.149500
     39 C14          9.4730     0.8270     1.4640 ca         1 J76      -0.080000
     40 C15         10.0000    -0.3380     0.9100 ca         1 J76      -0.103300
     41 C8          11.4400    -0.7140     1.1160 c3         1 J76      -0.026100
     42 C9          12.3760     0.0030     0.1420 c3         1 J76      -0.074400
     43 C10         13.8360    -0.3890     0.3310 c3         1 J76      -0.076400
     44 C11         14.7780     0.3250    -0.6300 c3         1 J76      -0.075400
     45 C12         16.2350    -0.0750    -0.4340 c3         1 J76      -0.089100
     46 H1          -8.6900    -7.8460     2.4250 hc         1 J76       0.031367
     47 H2          -8.8820    -9.1360     1.2420 hc         1 J76       0.031367
     48 H3          -7.3390    -8.9150     2.0640 hc         1 J76       0.031367
     49 H4          -7.2770    -8.0120    -0.2910 hc         1 J76       0.037200
     50 H5          -8.5970    -6.9300     0.0920 hc         1 J76       0.037200
     51 H6          -7.1770    -5.8270     1.8400 hc         1 J76       0.036200
     52 H7          -5.8580    -6.9060     1.4390 hc         1 J76       0.036200
     53 H8          -5.8540    -6.0070    -0.9070 hc         1 J76       0.039200
     54 H9          -7.1480    -4.9090    -0.4800 hc         1 J76       0.039200
     55 H10         -5.6620    -3.8540     1.2500 hc         1 J76       0.034200
     56 H11         -4.3700    -4.9440     0.7920 hc         1 J76       0.034200
     57 H12         -4.4540    -4.0150    -1.5500 hc         1 J76       0.059200
     58 H13         -5.6990    -2.8900    -1.0410 hc         1 J76       0.059200
     59 H14         -4.1000    -1.9270     0.6530 hc         1 J76       0.050700
     60 H15         -2.8640    -3.0240     0.0890 hc         1 J76       0.050700
     61 H16         -3.0890    -0.0830     0.1010 hn         1 J76       0.309500
     62 H17         -2.3390     0.3830    -2.7210 h1         1 J76       0.094700
     63 H18         -3.4510     2.5820    -2.6130 h1         1 J76       0.050700
     64 H19         -4.5540     1.2300    -2.3350 h1         1 J76       0.050700
     65 H20         -5.4310     3.6270    -1.3800 h2         1 J76       0.070700
     66 H21         -5.4330     0.4190     0.3300 h1         1 J76       0.052700
     67 H22         -7.5860    -0.6490     0.8720 h1         1 J76       0.036700
     68 H23         -8.4420     0.6040    -0.0300 h1         1 J76       0.036700
     69 H24         -7.9080    -1.2430    -1.3420 ho         1 J76       0.505000
     70 H25         -6.3500     0.8140     2.4700 h1         1 J76       0.048700
     71 H26         -7.7520     2.7220     2.6870 ho         1 J76       0.522000
     72 H27         -4.3980     2.0880     1.9060 h1         1 J76       0.060700
     73 H28         -4.9480     4.0050     3.2410 ho         1 J76       0.469000
     74 H29         -6.3250     4.1770     0.8050 h1         1 J76       0.064700
     75 H30         -4.4720     5.3460     0.4910 ho         1 J76       0.512000
     76 H31         -1.4170     1.5760    -0.0800 h1         1 J76       0.077700
     77 H32         -0.8440     2.6830    -2.5990 ho         1 J76       0.438000
     78 H33          0.1960     0.6550    -2.4900 h1         1 J76       0.071700
     79 H34         -0.3550    -0.8780    -0.2010 ho         1 J76       0.436000
     80 H35          1.3130     2.2260    -0.9210 hc         1 J76       0.046700
     81 H36          0.9750     1.1520     0.4200 hc         1 J76       0.046700
     82 H37          2.3630    -0.6300    -0.6560 hc         1 J76       0.064200
     83 H38          2.6980     0.4380    -2.0030 hc         1 J76       0.064200
     84 H39          3.8060     2.0610    -0.4580 hc         1 J76       0.057200
     85 H40          3.4050     1.0560     0.9100 hc         1 J76       0.057200
     86 H41          5.7910     1.7290     0.7640 hn         1 J76       0.146000
     87 H42          7.2160    -1.3900    -0.7270 ha         1 J76       0.127000
     88 H43          9.5250    -2.0230    -0.3240 ha         1 J76       0.112500
     89 H44          7.7780     2.1060     1.6980 ha         1 J76       0.127000
     90 H45         10.0980     1.4580     2.0850 ha         1 J76       0.112500
     91 H46         11.7410    -0.4760     2.1400 hc         1 J76       0.045200
     92 H47         11.5590    -1.7950     1.0000 hc         1 J76       0.045200
     93 H48         12.0660    -0.2200    -0.8840 hc         1 J76       0.041700
     94 H49         12.2660     1.0850     0.2680 hc         1 J76       0.041700
     95 H50         14.1400    -0.1750     1.3620 hc         1 J76       0.037200
     96 H51         13.9400    -1.4720     0.2020 hc         1 J76       0.037200
     97 H52         14.4760     0.1100    -1.6600 hc         1 J76       0.037200
     98 H53         14.6730     1.4070    -0.5020 hc         1 J76       0.037200
     99 H54         16.5730     0.1480     0.5800 hc         1 J76       0.031367
    100 H55         16.3750    -1.1450    -0.5990 hc         1 J76       0.031367
    101 H56         16.8930     0.4530    -1.1250 hc         1 J76       0.031367
@<TRIPOS>BOND
     1     1     2 1   
     2     1    46 1   
     3     1    47 1   
     4     1    48 1   
     5     2     3 1   
     6     2    49 1   
     7     2    50 1   
     8     3     4 1   
     9     3    51 1   
    10     3    52 1   
    11     4     5 1   
    12     4    53 1   
    13     4    54 1   
    14     5     6 1   
    15     5    55 1   
    16     5    56 1   
    17     6     7 1   
    18     6    57 1   
    19     6    58 1   
    20     7     8 1   
    21     7    59 1   
    22     7    60 1   
    23     8     9 2   
    24     8    10 1   
    25    10    11 1   
    26    10    61 1   
    27    11    12 1   
    28    11    25 1   
    29    11    62 1   
    30    12    13 1   
    31    12    63 1   
    32    12    64 1   
    33    13    14 1   
    34    14    15 1   
    35    14    23 1   
    36    14    65 1   
    37    15    16 1   
    38    16    17 1   
    39    16    19 1   
    40    16    66 1   
    41    17    18 1   
    42    17    67 1   
    43    17    68 1   
    44    18    69 1   
    45    19    20 1   
    46    19    21 1   
    47    19    70 1   
    48    20    71 1   
    49    21    22 1   
    50    21    23 1   
    51    21    72 1   
    52    22    73 1   
    53    23    24 1   
    54    23    74 1   
    55    24    75 1   
    56    25    26 1   
    57    25    27 1   
    58    25    76 1   
    59    26    77 1   
    60    27    28 1   
    61    27    29 1   
    62    27    78 1   
    63    28    79 1   
    64    29    30 1   
    65    29    80 1   
    66    29    81 1   
    67    30    31 1   
    68    30    82 1   
    69    30    83 1   
    70    31    32 1   
    71    31    84 1   
    72    31    85 1   
    73    32    33 2   
    74    32    34 1   
    75    34    35 1   
    76    34    86 1   
    77    35    36 ar  
    78    35    38 ar  
    79    36    37 ar  
    80    36    87 1   
    81    37    40 ar  
    82    37    88 1   
    83    38    39 ar  
    84    38    89 1   
    85    39    40 ar  
    86    39    90 1   
    87    40    41 1   
    88    41    42 1   
    89    41    91 1   
    90    41    92 1   
    91    42    43 1   
    92    42    93 1   
    93    42    94 1   
    94    43    44 1   
    95    43    95 1   
    96    43    96 1   
    97    44    45 1   
    98    44    97 1   
    99    44    98 1   
   100    45    99 1   
   101    45   100 1   
   102    45   101 1   
@<TRIPOS>SUBSTRUCTURE
     1 J76         1 TEMP              0 ****  ****    0 ROOT
