@<TRIPOS>MOLECULE
J77
   54    56     1     0     0
SMALL
abcg2


@<TRIPOS>ATOM
      1 C1           1.2240     0.3780    -9.8160 c3         1 J77      -0.136400
      2 C2           0.9130     0.2970    -8.3550 ca         1 J77       0.250300
      3 C3           1.6880     0.9760    -7.3990 ca         1 J77      -0.092000
      4 C4           1.3570     0.8650    -6.0830 ca         1 J77      -0.164000
      5 C5           0.2440     0.0550    -5.7530 ca         1 J77       0.545900
      6 N4          -0.4400    -0.5620    -6.7100 nb         1 J77      -0.403000
      7 N3          -0.1170    -0.4290    -7.9810 nb         1 J77      -0.287000
      8 N6          -0.1970    -0.0920    -4.4630 nh         1 J77      -0.764300
      9 C7          -1.3370    -0.9610    -4.2110 c6         1 J77       0.212300
     10 C8          -2.0380    -0.5830    -2.9160 c6         1 J77      -0.082900
     11 C9          -1.0850    -0.5660    -1.7250 c6         1 J77      -0.060700
     12 C10          0.0800     0.3600    -2.0560 c6         1 J77      -0.082900
     13 C11          0.7530    -0.0390    -3.3610 c6         1 J77       0.212300
     14 C12         -1.8260    -0.1740    -0.4490 c3         1 J77      -0.078400
     15 C13         -0.9620    -0.2740     0.7910 c3         1 J77       0.165600
     16 O14         -1.7810     0.0280     1.9150 os         1 J77      -0.346100
     17 C15         -1.2360     0.0500     3.1370 ca         1 J77       0.179100
     18 C16         -2.0930     0.3850     4.1910 ca         1 J77      -0.196500
     19 C17         -1.6160     0.4360     5.4820 ca         1 J77      -0.014500
     20 C18         -0.2760     0.1550     5.7660 ca         1 J77      -0.187600
     21 C19          0.5700    -0.1800     4.7120 ca         1 J77      -0.014500
     22 C20          0.1030    -0.2360     3.4080 ca         1 J77      -0.196500
     23 C21          0.1830     0.2300     7.1680 c          1 J77       0.616700
     24 O22         -0.5330     0.5340     8.0950 o          1 J77      -0.499000
     25 O23          1.4640    -0.0720     7.3050 os         1 J77      -0.450100
     26 C24          2.0370    -0.0230     8.6200 c3         1 J77       0.169600
     27 C25          3.4930    -0.4040     8.5020 c3         1 J77      -0.098100
     28 H11          1.1820     1.4100   -10.1710 hc         1 J77       0.050700
     29 H12          2.2290     0.0090   -10.0260 hc         1 J77       0.050700
     30 H13          0.5150    -0.2110   -10.3930 hc         1 J77       0.050700
     31 H3           2.5300     1.5830    -7.7070 ha         1 J77       0.125000
     32 H4           1.9240     1.4000    -5.3360 ha         1 J77       0.128000
     33 H71         -1.0150    -2.0110    -4.1650 h1         1 J77       0.049200
     34 H72         -2.0340    -0.8830    -5.0410 h1         1 J77       0.049200
     35 H81         -2.8470    -1.2960    -2.7440 hc         1 J77       0.051700
     36 H82         -2.4990     0.4040    -3.0270 hc         1 J77       0.051700
     37 H9          -0.6870    -1.5820    -1.5980 hc         1 J77       0.047700
     38 H101        -0.2800     1.3910    -2.1300 hc         1 J77       0.051700
     39 H102         0.8420     0.3430    -1.2740 hc         1 J77       0.051700
     40 H111         1.2350    -1.0190    -3.2370 h1         1 J77       0.049200
     41 H112         1.5430     0.6760    -3.5760 h1         1 J77       0.049200
     42 H121        -2.6910    -0.8340    -0.3310 hc         1 J77       0.059700
     43 H122        -2.2110     0.8460    -0.5480 hc         1 J77       0.059700
     44 H131        -0.1220     0.4250     0.7490 h1         1 J77       0.036700
     45 H132        -0.5490    -1.2850     0.8860 h1         1 J77       0.036700
     46 H16         -3.1320     0.6050     3.9820 ha         1 J77       0.126000
     47 H17         -2.2940     0.6970     6.2840 ha         1 J77       0.132500
     48 H19          1.6120    -0.4040     4.8910 ha         1 J77       0.132500
     49 H20          0.7950    -0.5020     2.6210 ha         1 J77       0.126000
     50 H241         1.5060    -0.7120     9.2800 h1         1 J77       0.049200
     51 H242         1.9300     0.9840     9.0290 h1         1 J77       0.049200
     52 H251         3.9530    -0.3640     9.4890 hc         1 J77       0.046033
     53 H252         3.6140    -1.4170     8.1180 hc         1 J77       0.046033
     54 H253         4.0350     0.2830     7.8520 hc         1 J77       0.046033
@<TRIPOS>BOND
     1     1     2 1   
     2     1    28 1   
     3     1    29 1   
     4     1    30 1   
     5     2     3 ar  
     6     2     7 ar  
     7     3     4 ar  
     8     3    31 1   
     9     4     5 ar  
    10     4    32 1   
    11     5     6 ar  
    12     5     8 1   
    13     6     7 ar  
    14     8     9 1   
    15     8    13 1   
    16     9    10 1   
    17     9    33 1   
    18     9    34 1   
    19    10    11 1   
    20    10    35 1   
    21    10    36 1   
    22    11    12 1   
    23    11    14 1   
    24    11    37 1   
    25    12    13 1   
    26    12    38 1   
    27    12    39 1   
    28    13    40 1   
    29    13    41 1   
    30    14    15 1   
    31    14    42 1   
    32    14    43 1   
    33    15    16 1   
    34    15    44 1   
    35    15    45 1   
    36    16    17 1   
    37    17    18 ar  
    38    17    22 ar  
    39    18    19 ar  
    40    18    46 1   
    41    19    20 ar  
    42    19    47 1   
    43    20    21 ar  
    44    20    23 1   
    45    21    22 ar  
    46    21    48 1   
    47    22    49 1   
    48    23    24 2   
    49    23    25 1   
    50    25    26 1   
    51    26    27 1   
    52    26    50 1   
    53    26    51 1   
    54    27    52 1   
    55    27    53 1   
    56    27    54 1   
@<TRIPOS>SUBSTRUCTURE
     1 J77         1 TEMP              0 ****  ****    0 ROOT
