@<TRIPOS>MOLECULE
J77
   54    56     1     0     0
SMALL
No Charge or Current Charge


@<TRIPOS>ATOM
      1 C1           1.2910     0.3820   -10.0300 c3         1 J77      -0.136400
      2 C2           0.9430     0.3040    -8.5540 ca         1 J77       0.250300
      3 C3           1.4470     1.2330    -7.6220 ca         1 J77      -0.092000
      4 C4           1.0760     1.0850    -6.2710 ca         1 J77      -0.164000
      5 C5           0.2260     0.0160    -5.9190 ca         1 J77       0.545900
      6 N4          -0.2300    -0.8430    -6.8690 nb         1 J77      -0.403000
      7 N3           0.1240    -0.7040    -8.1660 nb         1 J77      -0.287000
      8 N6          -0.1960    -0.1980    -4.5860 nh         1 J77      -0.764300
      9 C7          -1.3850    -1.0480    -4.2850 c6         1 J77       0.212300
     10 C8          -2.0580    -0.6160    -2.9600 c6         1 J77      -0.082900
     11 C9          -1.0550    -0.6100    -1.7760 c6         1 J77      -0.060700
     12 C10          0.1640     0.2770    -2.1500 c6         1 J77      -0.082900
     13 C11          0.8060    -0.1730    -3.4850 c6         1 J77       0.212300
     14 C12         -1.7500    -0.1600    -0.4540 c3         1 J77      -0.078400
     15 C13         -0.8690    -0.2430     0.8100 c3         1 J77       0.165600
     16 O14         -1.6910     0.1070     1.9360 os         1 J77      -0.346100
     17 C15         -1.1990     0.1280     3.2250 ca         1 J77       0.179100
     18 C16         -2.0790     0.4830     4.2560 ca         1 J77      -0.196500
     19 C17         -1.6390     0.5220     5.5900 ca         1 J77      -0.014500
     20 C18         -0.3020     0.2040     5.9110 ca         1 J77      -0.187600
     21 C19          0.5840    -0.1540     4.8680 ca         1 J77      -0.014500
     22 C20          0.1390    -0.1920     3.5350 ca         1 J77      -0.196500
     23 C21          0.1550     0.2520     7.3490 c          1 J77       0.616700
     24 O22         -0.5890     0.5580     8.2730 o          1 J77      -0.499000
     25 O23          1.4750    -0.0790     7.5200 os         1 J77      -0.450100
     26 C24          2.0110    -0.0650     8.8540 c3         1 J77       0.169600
     27 C25          3.4910    -0.4700     8.7600 c3         1 J77      -0.098100
     28 H11          1.6520     1.3810   -10.3030 hc         1 J77       0.050700
     29 H12          2.0770    -0.3390   -10.2830 hc         1 J77       0.050700
     30 H13          0.4180     0.1630   -10.6570 hc         1 J77       0.050700
     31 H3           2.1000     2.0420    -7.9390 ha         1 J77       0.125000
     32 H4           1.4250     1.7890    -5.5220 ha         1 J77       0.128000
     33 H71         -1.0850    -2.1050    -4.2150 h1         1 J77       0.049200
     34 H72         -2.1350    -0.9700    -5.0860 h1         1 J77       0.049200
     35 H81         -2.8960    -1.2910    -2.7430 hc         1 J77       0.051700
     36 H82         -2.4910     0.3860    -3.0870 hc         1 J77       0.051700
     37 H9          -0.7050    -1.6400    -1.6130 hc         1 J77       0.047700
     38 H101        -0.1480     1.3280    -2.2340 hc         1 J77       0.051700
     39 H102         0.9270     0.2380    -1.3620 hc         1 J77       0.051700
     40 H111         1.2390    -1.1760    -3.3550 h1         1 J77       0.049200
     41 H112         1.6380     0.5060    -3.7160 h1         1 J77       0.049200
     42 H121        -2.6380    -0.7810    -0.2850 hc         1 J77       0.059700
     43 H122        -2.1120     0.8710    -0.5580 hc         1 J77       0.059700
     44 H131        -0.0240     0.4510     0.7210 h1         1 J77       0.036700
     45 H132        -0.4800    -1.2640     0.9170 h1         1 J77       0.036700
     46 H16         -3.1110     0.7290     4.0200 ha         1 J77       0.126000
     47 H17         -2.3430     0.8010     6.3730 ha         1 J77       0.132500
     48 H19          1.6210    -0.4050     5.0810 ha         1 J77       0.132500
     49 H20          0.8460    -0.4710     2.7600 ha         1 J77       0.126000
     50 H241         1.4770    -0.7760     9.4990 h1         1 J77       0.049200
     51 H242         1.9330     0.9360     9.2980 h1         1 J77       0.049200
     52 H251         3.9470    -0.4740     9.7570 hc         1 J77       0.046033
     53 H252         3.5900    -1.4740     8.3320 hc         1 J77       0.046033
     54 H253         4.0450     0.2370     8.1310 hc         1 J77       0.046033
@<TRIPOS>BOND
     1     1     2 1   
     2     1    28 1   
     3     1    29 1   
     4     1    30 1   
     5     2     3 ar  
     6     2     7 ar  
     7     3     4 ar  
     8     3    31 1   
     9     4     5 ar  
    10     4    32 1   
    11     5     6 ar  
    12     5     8 1   
    13     6     7 ar  
    14     8     9 1   
    15     8    13 1   
    16     9    10 1   
    17     9    33 1   
    18     9    34 1   
    19    10    11 1   
    20    10    35 1   
    21    10    36 1   
    22    11    12 1   
    23    11    14 1   
    24    11    37 1   
    25    12    13 1   
    26    12    38 1   
    27    12    39 1   
    28    13    40 1   
    29    13    41 1   
    30    14    15 1   
    31    14    42 1   
    32    14    43 1   
    33    15    16 1   
    34    15    44 1   
    35    15    45 1   
    36    16    17 1   
    37    17    18 ar  
    38    17    22 ar  
    39    18    19 ar  
    40    18    46 1   
    41    19    20 ar  
    42    19    47 1   
    43    20    21 ar  
    44    20    23 1   
    45    21    22 ar  
    46    21    48 1   
    47    22    49 1   
    48    23    24 2   
    49    23    25 1   
    50    25    26 1   
    51    26    27 1   
    52    26    50 1   
    53    26    51 1   
    54    27    52 1   
    55    27    53 1   
    56    27    54 1   
@<TRIPOS>SUBSTRUCTURE
     1 J77         1 TEMP              0 ****  ****    0 ROOT
