@<TRIPOS>MOLECULE
J78
   57    59     1     0     0
SMALL
No Charge or Current Charge


@<TRIPOS>ATOM
      1 C1          -0.1910    -0.6990   -10.8990 c3         1 J78      -0.135400
      2 C2          -0.1550    -0.5320    -9.3910 ca         1 J78       0.246300
      3 C3          -0.6790    -1.5100    -8.5230 ca         1 J78      -0.089000
      4 C4          -0.6070    -1.2740    -7.1350 ca         1 J78      -0.169000
      5 C5          -0.0200    -0.0730    -6.6870 ca         1 J78       0.556900
      6 N4           0.4720     0.8280    -7.5770 nb         1 J78      -0.409000
      7 N3           0.4060     0.6040    -8.9090 nb         1 J78      -0.286000
      8 N6           0.0950     0.2370    -5.3120 nh         1 J78      -0.774300
      9 C7           1.0530     1.2780    -4.8380 c6         1 J78       0.218300
     10 C8           1.5110     0.9950    -3.3870 c6         1 J78      -0.084900
     11 C9           0.3090     0.8550    -2.4160 c6         1 J78      -0.059700
     12 C10         -0.6590    -0.2300    -2.9650 c6         1 J78      -0.084900
     13 C11         -1.0880     0.0740    -4.4210 c6         1 J78       0.218300
     14 C12          0.7950     0.5600    -0.9640 c3         1 J78      -0.071400
     15 C13         -0.3120     0.5390     0.1170 c3         1 J78      -0.081400
     16 C14          0.2440     0.3460     1.5410 c3         1 J78       0.164600
     17 O15         -0.8710     0.3420     2.4470 os         1 J78      -0.345100
     18 C16         -0.7100     0.1870     3.8080 ca         1 J78       0.180100
     19 C17         -1.8610     0.1960     4.6090 ca         1 J78      -0.197000
     20 C18         -1.7630     0.0430     6.0020 ca         1 J78      -0.014500
     21 C19         -0.5030    -0.1230     6.6170 ca         1 J78      -0.187600
     22 C20          0.6550    -0.1320     5.8070 ca         1 J78      -0.014500
     23 C21          0.5530     0.0220     4.4130 ca         1 J78      -0.197000
     24 C22         -0.4160    -0.2870     8.1160 c          1 J78       0.615700
     25 O23         -1.4020    -0.2830     8.8420 o          1 J78      -0.500000
     26 O24          0.8650    -0.4380     8.5810 os         1 J78      -0.450100
     27 C25          1.0590    -0.6020     9.9950 c3         1 J78       0.169600
     28 C26          2.5690    -0.7490    10.2390 c3         1 J78      -0.098100
     29 H11         -0.3380    -1.7480   -11.1820 hc         1 J78       0.050033
     30 H12         -1.0120    -0.1160   -11.3350 hc         1 J78       0.050033
     31 H13          0.7450    -0.3610   -11.3600 hc         1 J78       0.050033
     32 H3          -1.1230    -2.4220    -8.9130 ha         1 J78       0.125000
     33 H4          -0.9800    -2.0090    -6.4300 ha         1 J78       0.127000
     34 H71          0.5840     2.2730    -4.8860 h1         1 J78       0.049950
     35 H72          1.9490     1.3050    -5.4760 h1         1 J78       0.049950
     36 H81          2.1740     1.8050    -3.0530 hc         1 J78       0.050450
     37 H82          2.1120     0.0750    -3.3720 hc         1 J78       0.050450
     38 H9          -0.2230     1.8170    -2.3820 hc         1 J78       0.049700
     39 H101        -0.1770    -1.2170    -2.9270 hc         1 J78       0.050450
     40 H102        -1.5590    -0.2950    -2.3420 hc         1 J78       0.050450
     41 H111        -1.6900     0.9950    -4.4330 h1         1 J78       0.049950
     42 H112        -1.7410    -0.7390    -4.7670 h1         1 J78       0.049950
     43 H121         1.5340     1.3190    -0.6750 hc         1 J78       0.042200
     44 H122         1.3250    -0.4010    -0.9400 hc         1 J78       0.042200
     45 H131        -1.0190    -0.2720    -0.0920 hc         1 J78       0.056200
     46 H132        -0.8740     1.4800     0.0780 hc         1 J78       0.056200
     47 H141         0.9350     1.1660     1.7790 h1         1 J78       0.037700
     48 H142         0.7920    -0.6040     1.5940 h1         1 J78       0.037700
     49 H17         -2.8360     0.3230     4.1460 ha         1 J78       0.126000
     50 H18         -2.6720     0.0540     6.6020 ha         1 J78       0.132500
     51 H20          1.6420    -0.2580     6.2480 ha         1 J78       0.132500
     52 H21          1.4630     0.0100     3.8210 ha         1 J78       0.126000
     53 H251         0.5390    -1.4970    10.3620 h1         1 J78       0.048700
     54 H252         0.6820     0.2710    10.5460 h1         1 J78       0.048700
     55 H261         2.7690    -0.8770    11.3100 hc         1 J78       0.046033
     56 H262         2.9620    -1.6240     9.7090 hc         1 J78       0.046033
     57 H263         3.1050     0.1430     9.8930 hc         1 J78       0.046033
@<TRIPOS>BOND
     1     1     2 1   
     2     1    29 1   
     3     1    30 1   
     4     1    31 1   
     5     2     3 ar  
     6     2     7 ar  
     7     3     4 ar  
     8     3    32 1   
     9     4     5 ar  
    10     4    33 1   
    11     5     6 ar  
    12     5     8 1   
    13     6     7 ar  
    14     8     9 1   
    15     8    13 1   
    16     9    10 1   
    17     9    34 1   
    18     9    35 1   
    19    10    11 1   
    20    10    36 1   
    21    10    37 1   
    22    11    12 1   
    23    11    14 1   
    24    11    38 1   
    25    12    13 1   
    26    12    39 1   
    27    12    40 1   
    28    13    41 1   
    29    13    42 1   
    30    14    15 1   
    31    14    43 1   
    32    14    44 1   
    33    15    16 1   
    34    15    45 1   
    35    15    46 1   
    36    16    17 1   
    37    16    47 1   
    38    16    48 1   
    39    17    18 1   
    40    18    19 ar  
    41    18    23 ar  
    42    19    20 ar  
    43    19    49 1   
    44    20    21 ar  
    45    20    50 1   
    46    21    22 ar  
    47    21    24 1   
    48    22    23 ar  
    49    22    51 1   
    50    23    52 1   
    51    24    25 2   
    52    24    26 1   
    53    26    27 1   
    54    27    28 1   
    55    27    53 1   
    56    27    54 1   
    57    28    55 1   
    58    28    56 1   
    59    28    57 1   
@<TRIPOS>SUBSTRUCTURE
     1 J78         1 TEMP              0 ****  ****    0 ROOT
