@<TRIPOS>MOLECULE
J78
   57    59     1     0     0
SMALL
abcg2


@<TRIPOS>ATOM
      1 C1           0.3080    -0.9550   -10.6050 c3         1 J78      -0.135400
      2 C2           0.1500    -0.6740    -9.1450 ca         1 J78       0.246300
      3 C3          -0.7730    -1.3800    -8.3540 ca         1 J78      -0.089000
      4 C4          -0.8690    -1.0810    -7.0290 ca         1 J78      -0.169000
      5 C5          -0.0250    -0.0620    -6.5210 ca         1 J78       0.556900
      6 N4           0.8160     0.5710    -7.3320 nb         1 J78      -0.409000
      7 N3           0.9060     0.2590    -8.6100 nb         1 J78      -0.286000
      8 N6          -0.0010     0.2780    -5.1970 nh         1 J78      -0.774300
      9 C7           0.8850     1.3360    -4.7390 c6         1 J78       0.218300
     10 C8           1.3280     1.0860    -3.3060 c6         1 J78      -0.084900
     11 C9           0.1490     0.9100    -2.3550 c6         1 J78      -0.059700
     12 C10         -0.7550    -0.1900    -2.9030 c6         1 J78      -0.084900
     13 C11         -1.1630     0.0840    -4.3430 c6         1 J78       0.218300
     14 C12          0.6320     0.6270    -0.9360 c3         1 J78      -0.071400
     15 C13         -0.4760     0.6160     0.1110 c3         1 J78      -0.081400
     16 C14          0.0920     0.4090     1.4990 c3         1 J78       0.164600
     17 O15         -0.9840     0.4350     2.4290 os         1 J78      -0.345100
     18 C16         -0.7340     0.2590     3.7300 ca         1 J78       0.180100
     19 C17         -1.8420     0.3000     4.5850 ca         1 J78      -0.197000
     20 C18         -1.6780     0.1240     5.9410 ca         1 J78      -0.014500
     21 C19         -0.4120    -0.0980     6.4880 ca         1 J78      -0.187600
     22 C20          0.6860    -0.1360     5.6330 ca         1 J78      -0.014500
     23 C21          0.5350     0.0410     4.2660 ca         1 J78      -0.197000
     24 C22         -0.2950    -0.2840     7.9500 c          1 J78       0.615700
     25 O23         -1.2360    -0.2420     8.7100 o          1 J78      -0.500000
     26 O24          0.9500    -0.5020     8.3430 os         1 J78      -0.450100
     27 C25          1.1930    -0.6980     9.7440 c3         1 J78       0.169600
     28 C26          2.6740    -0.9250     9.9260 c3         1 J78      -0.098100
     29 H11          0.5600    -2.0020   -10.7810 hc         1 J78       0.050033
     30 H12         -0.6170    -0.7520   -11.1490 hc         1 J78       0.050033
     31 H13          1.0960    -0.3370   -11.0320 hc         1 J78       0.050033
     32 H3          -1.3890    -2.1550    -8.7910 ha         1 J78       0.125000
     33 H4          -1.5570    -1.6260    -6.4000 ha         1 J78       0.127000
     34 H71          0.3790     2.3090    -4.8060 h1         1 J78       0.049950
     35 H72          1.7500     1.3830    -5.3930 h1         1 J78       0.049950
     36 H81          1.9530     1.9230    -2.9860 hc         1 J78       0.050450
     37 H82          1.9570     0.1890    -3.2740 hc         1 J78       0.050450
     38 H9          -0.4230     1.8480    -2.3440 hc         1 J78       0.049700
     39 H101        -0.2320    -1.1510    -2.8540 hc         1 J78       0.050450
     40 H102        -1.6630    -0.2870    -2.3050 hc         1 J78       0.050450
     41 H111        -1.8010     0.9770    -4.3810 h1         1 J78       0.049950
     42 H112        -1.7650    -0.7470    -4.7010 h1         1 J78       0.049950
     43 H121         1.3720     1.3870    -0.6640 hc         1 J78       0.042200
     44 H122         1.1650    -0.3310    -0.9240 hc         1 J78       0.042200
     45 H131        -1.1980    -0.1760    -0.1000 hc         1 J78       0.056200
     46 H132        -1.0200     1.5650     0.0770 hc         1 J78       0.056200
     47 H141         0.8160     1.1970     1.7360 h1         1 J78       0.037700
     48 H142         0.6170    -0.5510     1.5540 h1         1 J78       0.037700
     49 H17         -2.8280     0.4720     4.1700 ha         1 J78       0.126000
     50 H18         -2.5460     0.1590     6.5850 ha         1 J78       0.132500
     51 H20          1.6810    -0.3050     6.0190 ha         1 J78       0.132500
     52 H21          1.4140     0.0050     3.6370 ha         1 J78       0.126000
     53 H251         0.6200    -1.5570    10.0990 h1         1 J78       0.048700
     54 H252         0.8610     0.1800    10.3010 h1         1 J78       0.048700
     55 H261         2.8820    -1.0880    10.9830 hc         1 J78       0.046033
     56 H262         3.0150    -1.8040     9.3790 hc         1 J78       0.046033
     57 H263         3.2560    -0.0640     9.5990 hc         1 J78       0.046033
@<TRIPOS>BOND
     1     1     2 1   
     2     1    29 1   
     3     1    30 1   
     4     1    31 1   
     5     2     3 ar  
     6     2     7 ar  
     7     3     4 ar  
     8     3    32 1   
     9     4     5 ar  
    10     4    33 1   
    11     5     6 ar  
    12     5     8 1   
    13     6     7 ar  
    14     8     9 1   
    15     8    13 1   
    16     9    10 1   
    17     9    34 1   
    18     9    35 1   
    19    10    11 1   
    20    10    36 1   
    21    10    37 1   
    22    11    12 1   
    23    11    14 1   
    24    11    38 1   
    25    12    13 1   
    26    12    39 1   
    27    12    40 1   
    28    13    41 1   
    29    13    42 1   
    30    14    15 1   
    31    14    43 1   
    32    14    44 1   
    33    15    16 1   
    34    15    45 1   
    35    15    46 1   
    36    16    17 1   
    37    16    47 1   
    38    16    48 1   
    39    17    18 1   
    40    18    19 ar  
    41    18    23 ar  
    42    19    20 ar  
    43    19    49 1   
    44    20    21 ar  
    45    20    50 1   
    46    21    22 ar  
    47    21    24 1   
    48    22    23 ar  
    49    22    51 1   
    50    23    52 1   
    51    24    25 2   
    52    24    26 1   
    53    26    27 1   
    54    27    28 1   
    55    27    53 1   
    56    27    54 1   
    57    28    55 1   
    58    28    56 1   
    59    28    57 1   
@<TRIPOS>SUBSTRUCTURE
     1 J78         1 TEMP              0 ****  ****    0 ROOT
