@<TRIPOS>MOLECULE
J79
   41    41     1     0     0
SMALL
abcg2


@<TRIPOS>ATOM
      1 C02          2.3400   -12.3660   -10.8800 c6         1 J79       0.174300
      2 C03          3.8150   -12.1970   -10.5400 c6         1 J79       0.166300
      3 C05          5.5900   -10.9660   -11.6410 c3         1 J79       0.050300
      4 C06          5.0970    -9.6490   -12.2350 c3         1 J79      -0.089100
      5 C07          6.8740   -11.4380   -12.3640 c          1 J79       0.708000
      6 C10          4.3550   -13.4620    -9.8510 c6         1 J79       0.054700
      7 C13          8.1130   -13.6120    -9.2660 c3         1 J79      -0.175100
      8 C15          3.4550   -13.8980    -8.6930 c6         1 J79       0.377300
      9 C18          1.5680   -12.8210    -9.6340 c6         1 J79       0.121300
     10 C19          0.0840   -13.0250    -9.8890 c3         1 J79       0.252600
     11 N11          5.7200   -13.2650    -9.4080 ns         1 J79      -0.482900
     12 O01          1.8140   -11.1550   -11.3750 oh         1 J79      -0.826000
     13 O04          4.5560   -11.9550   -11.7250 os         1 J79      -0.407000
     14 O08          6.7850   -12.3430   -13.2250 o          1 J79      -0.742500
     15 O09          7.9200   -10.8220   -12.0290 o          1 J79      -0.742500
     16 O14          6.6390   -15.0170   -10.5240 o          1 J79      -0.609100
     17 O16          3.9000   -15.1360    -8.2270 oh         1 J79      -0.645000
     18 O17          2.1200   -14.0500    -9.1430 os         1 J79      -0.474000
     19 O20         -0.1570   -13.8380   -11.0250 os         1 J79      -0.584400
     20 O22         -0.3290   -11.8760   -12.6560 o          1 J79      -0.911500
     21 O23         -2.4480   -13.0040   -11.8110 o          1 J79      -0.911500
     22 O24         -0.8570   -14.2810   -13.3670 o          1 J79      -0.911500
     23 P21         -1.0270   -13.2050   -12.3130 p5         1 J79       1.296900
     24 H1           2.2530   -13.1590   -11.6330 h1         1 J79       0.088700
     25 H2           3.9100   -11.3430    -9.8570 h1         1 J79       0.003700
     26 H3           5.8550   -10.8100   -10.5950 h1         1 J79      -0.006300
     27 H4           4.2210    -9.2910   -11.6910 hc         1 J79       0.022367
     28 H5           5.8790    -8.8900   -12.1770 hc         1 J79       0.022367
     29 H6           4.8200    -9.7890   -13.2820 hc         1 J79       0.022367
     30 H7           4.3690   -14.2730   -10.5790 h1         1 J79       0.129700
     31 H8           8.5900   -14.4670    -8.7870 hc         1 J79       0.044033
     32 H9           8.7310   -13.3150   -10.1140 hc         1 J79       0.044033
     33 H10          8.0590   -12.7840    -8.5610 hc         1 J79       0.044033
     34 H11          3.4760   -13.1470    -7.8900 h2         1 J79      -0.024300
     35 H12          1.6660   -12.0500    -8.8560 h1         1 J79      -0.016300
     36 H13         -0.3810   -12.0440   -10.0030 h1         1 J79       0.002200
     37 H14         -0.3510   -13.5000    -9.0040 h1         1 J79       0.002200
     38 H15          5.9090   -12.4810    -8.8040 hn         1 J79       0.285500
     39 H16          0.9750   -11.3930   -11.8820 ho         1 J79       0.615000
     40 H18          3.5030   -15.3040    -7.3620 ho         1 J79       0.416000
     41 C12          6.7600   -14.0360    -9.7890 c          1 J79       0.616100
@<TRIPOS>BOND
     1     1     2 1   
     2     1     9 1   
     3     1    12 1   
     4     1    24 1   
     5     2     6 1   
     6     2    13 1   
     7     2    25 1   
     8     3     4 1   
     9     3     5 1   
    10     3    13 1   
    11     3    26 1   
    12     4    27 1   
    13     4    28 1   
    14     4    29 1   
    15     5    14 1   
    16     5    15 1   
    17     6     8 1   
    18     6    11 1   
    19     6    30 1   
    20     7    31 1   
    21     7    32 1   
    22     7    33 1   
    23     7    41 1   
    24     8    17 1   
    25     8    18 1   
    26     8    34 1   
    27     9    10 1   
    28     9    18 1   
    29     9    35 1   
    30    10    19 1   
    31    10    36 1   
    32    10    37 1   
    33    11    38 1   
    34    11    41 1   
    35    12    39 1   
    36    16    41 2   
    37    17    40 1   
    38    19    23 1   
    39    20    23 1   
    40    21    23 1   
    41    22    23 1   
@<TRIPOS>SUBSTRUCTURE
     1 J79         1 TEMP              0 ****  ****    0 ROOT
