@<TRIPOS>MOLECULE
J79
   41    41     1     0     0
SMALL
No Charge or Current Charge


@<TRIPOS>ATOM
      1 C02          2.3000   -12.3810   -10.9650 c6         1 J79       0.174300
      2 C03          3.8220   -12.1670   -10.6440 c6         1 J79       0.166300
      3 C05          5.7420   -11.0500   -11.8320 c3         1 J79       0.050300
      4 C06          5.2610    -9.5790   -11.7340 c3         1 J79      -0.089100
      5 C07          6.6940   -11.2570   -13.0710 c          1 J79       0.708000
      6 C10          4.3960   -13.4030    -9.8730 c6         1 J79       0.054700
      7 C13          8.1620   -13.7420    -9.0380 c3         1 J79      -0.175100
      8 C15          3.4930   -13.6800    -8.6300 c6         1 J79       0.377300
      9 C18          1.5310   -12.7370    -9.6520 c6         1 J79       0.121300
     10 C19         -0.0000   -13.0330    -9.8370 c3         1 J79       0.252600
     11 N11          5.8170   -13.2250    -9.4800 ns         1 J79      -0.482900
     12 O01          1.7150   -11.2330   -11.6250 oh         1 J79      -0.826000
     13 O04          4.5620   -11.9080   -11.8730 os         1 J79      -0.407000
     14 O08          6.3540   -12.0030   -13.9830 o          1 J79      -0.742500
     15 O09          7.7820   -10.6950   -13.0600 o          1 J79      -0.742500
     16 O14          6.6000   -15.3030   -10.0140 o          1 J79      -0.609100
     17 O16          3.8590   -14.8700    -7.9610 oh         1 J79      -0.645000
     18 O17          2.1390   -13.8910    -9.0250 os         1 J79      -0.474000
     19 O20         -0.2490   -13.9500   -10.9180 os         1 J79      -0.584400
     20 O22         -0.2070   -12.2670   -12.7940 o          1 J79      -0.911500
     21 O23         -2.3650   -13.0080   -11.9290 o          1 J79      -0.911500
     22 O24         -0.9960   -14.5200   -13.2530 o          1 J79      -0.911500
     23 P21         -0.9730   -13.4210   -12.2520 p5         1 J79       1.296900
     24 H1           2.2350   -13.2570   -11.6290 h1         1 J79       0.088700
     25 H2           3.9040   -11.2890    -9.9880 h1         1 J79       0.003700
     26 H3           6.3420   -11.2640   -10.9400 h1         1 J79      -0.006300
     27 H4           4.6740    -9.4040   -10.8250 hc         1 J79       0.022367
     28 H5           6.1180    -8.8970   -11.7060 hc         1 J79       0.022367
     29 H6           4.6450    -9.3160   -12.6020 hc         1 J79       0.022367
     30 H7           4.3200   -14.2760   -10.5370 h1         1 J79       0.129700
     31 H8           8.9230   -14.5260    -9.1210 hc         1 J79       0.044033
     32 H9           8.4640   -12.8290    -9.5640 hc         1 J79       0.044033
     33 H10          8.0550   -13.3890    -8.0060 hc         1 J79       0.044033
     34 H11          3.5410   -12.8360    -7.9270 h2         1 J79      -0.024300
     35 H12          1.6180   -11.8970    -8.9470 h1         1 J79      -0.016300
     36 H13         -0.5130   -12.0770   -10.0050 h1         1 J79       0.002200
     37 H14         -0.3930   -13.4450    -8.8980 h1         1 J79       0.002200
     38 H15          6.0960   -12.3340    -9.0880 hn         1 J79       0.285500
     39 H16          0.9090   -11.6230   -12.1420 ho         1 J79       0.615000
     40 H18          2.9980   -15.2890    -7.7610 ho         1 J79       0.416000
     41 C12          6.7980   -14.1860    -9.5560 c          1 J79       0.616100
@<TRIPOS>BOND
     1     1     2 1   
     2     1     9 1   
     3     1    12 1   
     4     1    24 1   
     5     2     6 1   
     6     2    13 1   
     7     2    25 1   
     8     3     4 1   
     9     3     5 1   
    10     3    13 1   
    11     3    26 1   
    12     4    27 1   
    13     4    28 1   
    14     4    29 1   
    15     5    14 1   
    16     5    15 1   
    17     6     8 1   
    18     6    11 1   
    19     6    30 1   
    20     7    31 1   
    21     7    32 1   
    22     7    33 1   
    23     7    41 1   
    24     8    17 1   
    25     8    18 1   
    26     8    34 1   
    27     9    10 1   
    28     9    18 1   
    29     9    35 1   
    30    10    19 1   
    31    10    36 1   
    32    10    37 1   
    33    11    38 1   
    34    11    41 1   
    35    12    39 1   
    36    16    41 2   
    37    17    40 1   
    38    19    23 1   
    39    20    23 1   
    40    21    23 1   
    41    22    23 1   
@<TRIPOS>SUBSTRUCTURE
     1 J79         1 TEMP              0 ****  ****    0 ROOT
