@<TRIPOS>MOLECULE
J7B
   46    48     1     0     0
SMALL
No Charge or Current Charge


@<TRIPOS>ATOM
      1 C1          -0.0880     0.0610     0.0270 ca         1 J7B      -0.139600
      2 C2          -1.4090    -0.4410     0.1080 ca         1 J7B      -0.056000
      3 C3          -2.5170     0.3970     0.3900 cp         1 J7B      -0.072000
      4 C11          6.0260    -0.7150    -0.7030 ca         1 J7B      -0.108000
      5 C12          6.1920    -2.1080    -0.6770 ca         1 J7B      -0.144000
      6 C13          5.0830    -2.9390    -0.4730 ca         1 J7B      -0.124000
      7 C14          3.8080    -2.3800    -0.2990 ca         1 J7B      -0.128000
      8 C15          4.6210     1.3910    -0.5680 c3         1 J7B      -0.178100
      9 C16          4.5010     1.9420     0.8610 c          1 J7B       0.728000
     10 C19         -3.9060    -0.1580     0.4760 cp         1 J7B      -0.017000
     11 C21         -5.0220     0.5860     0.0160 ca         1 J7B      -0.082000
     12 C22         -6.3320     0.0720     0.0940 ca         1 J7B      -0.095300
     13 C23         -6.5400    -1.2080     0.6410 ca         1 J7B      -0.122000
     14 C24         -5.4500    -1.9630     1.1040 ca         1 J7B      -0.117000
     15 C25         -4.1470    -1.4440     1.0220 ca         1 J7B      -0.100000
     16 C26         -7.5110     0.8970    -0.4050 c3         1 J7B       0.201100
     17 C4          -2.2700     1.7770     0.5860 ca         1 J7B      -0.090000
     18 C5          -0.9700     2.2940     0.5010 ca         1 J7B      -0.129000
     19 C6           0.1160     1.4480     0.2230 ca         1 J7B      -0.051000
     20 C7           1.0520    -0.8930    -0.2840 c          1 J7B       0.610700
     21 N8           2.3390    -0.3860    -0.1460 ns         1 J7B      -0.165000
     22 C9           3.6220    -0.9790    -0.3350 ca         1 J7B      -0.019000
     23 C10          4.7500    -0.1380    -0.5310 ca         1 J7B      -0.055300
     24 O17          3.3860     1.9870     1.3580 o          1 J7B      -0.718500
     25 O18          5.5290     2.1850     1.4760 o          1 J7B      -0.718500
     26 O20          0.8260    -2.0370    -0.6660 o          1 J7B      -0.644100
     27 N27         -7.6930     0.7530    -1.8590 n8         1 J7B      -0.996200
     28 H1          -1.5840    -1.5020    -0.0590 ha         1 J7B       0.128000
     29 H2           6.8960    -0.0810    -0.8540 ha         1 J7B       0.105000
     30 H3           7.1810    -2.5410    -0.8100 ha         1 J7B       0.092000
     31 H4           5.2120    -4.0190    -0.4430 ha         1 J7B       0.091000
     32 H5           2.9750    -3.0520    -0.1190 ha         1 J7B       0.117000
     33 H6           3.7200     1.6320    -1.1440 hc         1 J7B       0.039200
     34 H7           5.5290     1.7870    -1.0370 hc         1 J7B       0.039200
     35 H8          -4.8690     1.5690    -0.4210 ha         1 J7B       0.135000
     36 H9          -7.5450    -1.6180     0.7090 ha         1 J7B       0.098000
     37 H10         -5.6150    -2.9510     1.5290 ha         1 J7B       0.106000
     38 H11         -3.3200    -2.0400     1.3990 ha         1 J7B       0.122000
     39 H12         -8.4320     0.5740     0.1000 h1         1 J7B       0.027700
     40 H13         -7.3480     1.9590    -0.1710 h1         1 J7B       0.027700
     41 H14         -3.0910     2.4510     0.8160 ha         1 J7B       0.105000
     42 H15         -0.8010     3.3580     0.6520 ha         1 J7B       0.113000
     43 H16          1.1030     1.8950     0.1480 ha         1 J7B       0.156000
     44 H17          2.3810     0.5700     0.1860 hn         1 J7B       0.240000
     45 H19         -7.8970    -0.2310    -2.0650 hn         1 J7B       0.394500
     46 H20         -8.5510     1.2450    -2.1360 hn         1 J7B       0.394500
@<TRIPOS>BOND
     1     1     2 ar  
     2     1    19 ar  
     3     1    20 1   
     4     2     3 ar  
     5     2    28 1   
     6     3    10 1   
     7     3    17 ar  
     8     4     5 ar  
     9     4    23 ar  
    10     4    29 1   
    11     5     6 ar  
    12     5    30 1   
    13     6     7 ar  
    14     6    31 1   
    15     7    22 ar  
    16     7    32 1   
    17     8     9 1   
    18     8    23 1   
    19     8    33 1   
    20     8    34 1   
    21     9    24 1   
    22     9    25 1   
    23    10    11 ar  
    24    10    15 ar  
    25    11    12 ar  
    26    11    35 1   
    27    12    13 ar  
    28    12    16 1   
    29    13    14 ar  
    30    13    36 1   
    31    14    15 ar  
    32    14    37 1   
    33    15    38 1   
    34    16    27 1   
    35    16    39 1   
    36    16    40 1   
    37    17    18 ar  
    38    17    41 1   
    39    18    19 ar  
    40    18    42 1   
    41    19    43 1   
    42    20    21 1   
    43    20    26 2   
    44    21    22 1   
    45    21    44 1   
    46    22    23 ar  
    47    27    45 1   
    48    27    46 1   
@<TRIPOS>SUBSTRUCTURE
     1 J7B         1 TEMP              0 ****  ****    0 ROOT
