@<TRIPOS>MOLECULE
J7B
   46    48     1     0     0
SMALL
bcc


@<TRIPOS>ATOM
      1 C1          -0.0630    -0.0850     0.7660 ca         1 J7B      -0.139600
      2 C2          -1.3370    -0.5750     0.4960 ca         1 J7B      -0.074000
      3 C3          -2.4780     0.1630     0.8000 cp         1 J7B      -0.072000
      4 C11          5.6330    -0.8430    -1.1370 ca         1 J7B      -0.126000
      5 C12          6.0510    -1.9780    -0.4580 ca         1 J7B      -0.162000
      6 C13          5.1890    -2.5850     0.4440 ca         1 J7B      -0.142000
      7 C14          3.9300    -2.0510     0.6680 ca         1 J7B      -0.146000
      8 C15          3.9490     0.9060    -1.7530 c3         1 J7B      -0.178100
      9 C16          3.8820     2.2190    -0.9410 c          1 J7B       0.938600
     10 C19         -3.8230    -0.3700     0.4980 cp         1 J7B      -0.017000
     11 C21         -4.8410     0.4760     0.0580 ca         1 J7B      -0.100000
     12 C22         -6.1110    -0.0070    -0.2360 ca         1 J7B      -0.095300
     13 C23         -6.3590    -1.3690    -0.0910 ca         1 J7B      -0.140000
     14 C24         -5.3590    -2.2240     0.3510 ca         1 J7B      -0.135000
     15 C25         -4.0960    -1.7310     0.6440 ca         1 J7B      -0.118000
     16 C26         -7.2170     0.9170    -0.6850 c3         1 J7B       0.201100
     17 C4          -2.3190     1.4130     1.4020 ca         1 J7B      -0.108000
     18 C5          -1.0550     1.9020     1.6880 ca         1 J7B      -0.147000
     19 C6           0.0750     1.1630     1.3710 ca         1 J7B      -0.069000
     20 C7           1.1070    -0.9560     0.4270 c          1 J7B       0.677700
     21 N8           2.2730    -0.3050     0.2430 ns         1 J7B      -0.491100
     22 C9           3.5140    -0.9090    -0.0140 ca         1 J7B       0.073600
     23 C10          4.3670    -0.2950    -0.9440 ca         1 J7B      -0.055300
     24 O17          3.0500     2.2400     0.0060 o          1 J7B      -0.823800
     25 O18          4.6270     3.1480    -1.2700 o          1 J7B      -0.823800
     26 O20          0.9730    -2.1670     0.3220 o          1 J7B      -0.644100
     27 N27         -6.7160     2.0860    -1.3830 n8         1 J7B      -0.885800
     28 H1          -1.4360    -1.5420     0.0200 ha         1 J7B       0.146000
     29 H2           6.2990    -0.3730    -1.8520 ha         1 J7B       0.123000
     30 H3           7.0380    -2.3830    -0.6340 ha         1 J7B       0.110000
     31 H4           5.4970    -3.4710     0.9840 ha         1 J7B       0.109000
     32 H5           3.2780    -2.5160     1.3940 ha         1 J7B       0.135000
     33 H6           2.9580     0.7220    -2.1830 hc         1 J7B       0.039200
     34 H7           4.6420     1.0230    -2.5850 hc         1 J7B       0.039200
     35 H8          -4.6410     1.5310    -0.0850 ha         1 J7B       0.153000
     36 H9          -7.3380    -1.7670    -0.3300 ha         1 J7B       0.116000
     37 H10         -5.5630    -3.2800     0.4670 ha         1 J7B       0.124000
     38 H11         -3.3280    -2.4060     1.0000 ha         1 J7B       0.140000
     39 H12         -7.9440     0.3300    -1.2620 h1         1 J7B       0.027700
     40 H13         -7.7550     1.2640     0.2020 h1         1 J7B       0.027700
     41 H14         -3.1890     1.9980     1.6730 ha         1 J7B       0.123000
     42 H15         -0.9480     2.8630     2.1750 ha         1 J7B       0.131000
     43 H16          1.0500     1.5590     1.6210 ha         1 J7B       0.174000
     44 H17          2.3190     0.7320     0.1910 hn         1 J7B       0.406500
     45 H19         -6.3620     1.8150    -2.2920 hn         1 J7B       0.339300
     46 H20         -7.4820     2.7230    -1.5590 hn         1 J7B       0.339300
@<TRIPOS>BOND
     1     1     2 ar  
     2     1    19 ar  
     3     1    20 1   
     4     2     3 ar  
     5     2    28 1   
     6     3    10 1   
     7     3    17 ar  
     8     4     5 ar  
     9     4    23 ar  
    10     4    29 1   
    11     5     6 ar  
    12     5    30 1   
    13     6     7 ar  
    14     6    31 1   
    15     7    22 ar  
    16     7    32 1   
    17     8     9 1   
    18     8    23 1   
    19     8    33 1   
    20     8    34 1   
    21     9    24 1   
    22     9    25 1   
    23    10    11 ar  
    24    10    15 ar  
    25    11    12 ar  
    26    11    35 1   
    27    12    13 ar  
    28    12    16 1   
    29    13    14 ar  
    30    13    36 1   
    31    14    15 ar  
    32    14    37 1   
    33    15    38 1   
    34    16    27 1   
    35    16    39 1   
    36    16    40 1   
    37    17    18 ar  
    38    17    41 1   
    39    18    19 ar  
    40    18    42 1   
    41    19    43 1   
    42    20    21 1   
    43    20    26 2   
    44    21    22 1   
    45    21    44 1   
    46    22    23 ar  
    47    27    45 1   
    48    27    46 1   
@<TRIPOS>SUBSTRUCTURE
     1 J7B         1 TEMP              0 ****  ****    0 ROOT
