@<TRIPOS>MOLECULE
J7F
   43    44     1     0     0
SMALL
bcc


@<TRIPOS>ATOM
      1 C12          2.6280    31.8980   -48.3260 ca         1 J7F       0.016600
      2 C14          1.7630    33.0500   -46.3940 ca         1 J7F      -0.177000
      3 C16          3.8070    33.7980   -47.4100 ca         1 J7F      -0.177000
      4 C17          3.6950    32.7920   -48.3540 ca         1 J7F      -0.101000
      5 C01         -0.5180    28.4040   -53.6750 ca         1 J7F      -0.080300
      6 C02         -0.5540    27.4160   -54.6560 ca         1 J7F      -0.100000
      7 C03          0.4370    26.4500   -54.7970 ca         1 J7F      -0.162000
      8 C04          1.5120    26.4540   -53.9310 ca         1 J7F      -0.095000
      9 C05          1.5920    27.4210   -52.9370 ca         1 J7F      -0.224000
     10 C06          0.5960    28.3850   -52.8080 ca         1 J7F       0.143100
     11 O07          0.6460    29.3420   -51.8550 os         1 J7F      -0.295900
     12 C08          1.7100    29.3700   -50.9500 c3         1 J7F       0.056400
     13 C09          1.4680    30.5330   -49.9980 c          1 J7F       0.671100
     14 O10          0.3850    31.0690   -49.8770 o          1 J7F      -0.549100
     15 N11          2.5680    30.8690   -49.2880 ns         1 J7F      -0.487100
     16 C13          1.6670    32.0320   -47.3300 ca         1 J7F      -0.101000
     17 C15          2.8320    33.9430   -46.4260 ca         1 J7F       0.131100
     18 O18          2.9730    34.9500   -45.5400 oh         1 J7F      -0.494100
     19 C20         -1.1040    30.8660   -53.7350 c3         1 J7F      -0.084100
     20 C21         -2.3460    29.3060   -52.1910 c3         1 J7F      -0.084100
     21 C22         -2.7150    29.2330   -54.6270 c3         1 J7F      -0.084100
     22 H1           1.0010    33.1400   -45.6280 ha         1 J7F       0.141500
     23 H2           4.6460    34.4820   -47.4440 ha         1 J7F       0.141500
     24 H3           4.4500    32.6990   -49.1240 ha         1 J7F       0.141000
     25 H4          -1.3860    27.3860   -55.3440 ha         1 J7F       0.134000
     26 H5           0.3570    25.7070   -55.5780 ha         1 J7F       0.133000
     27 H6           2.2970    25.7130   -54.0170 ha         1 J7F       0.129000
     28 H7           2.4440    27.4060   -52.2700 ha         1 J7F       0.127000
     29 H8           1.7670    28.4470   -50.3580 h1         1 J7F       0.047700
     30 H9           2.6750    29.4900   -51.4570 h1         1 J7F       0.047700
     31 H10          3.4480    30.4490   -49.5510 hn         1 J7F       0.317500
     32 H11          0.8400    31.3380   -47.2640 ha         1 J7F       0.141000
     33 H12          2.2430    34.9510   -44.9110 ho         1 J7F       0.427000
     34 H13         -0.3990    31.1560   -52.9610 hc         1 J7F       0.036922
     35 H14         -0.6110    30.9730   -54.7030 hc         1 J7F       0.036922
     36 H15         -1.9330    31.5760   -53.7070 hc         1 J7F       0.036922
     37 H16         -1.6850    29.5110   -51.3530 hc         1 J7F       0.036922
     38 H17         -3.1790    30.0110   -52.1360 hc         1 J7F       0.036922
     39 H18         -2.7570    28.3020   -52.0630 hc         1 J7F       0.036922
     40 H19         -3.4960    29.9830   -54.4960 hc         1 J7F       0.036922
     41 H20         -2.3180    29.3490   -55.6370 hc         1 J7F       0.036922
     42 H21         -3.1930    28.2540   -54.5590 hc         1 J7F       0.036922
     43 C19         -1.6430    29.4380   -53.5510 c3         1 J7F       0.014300
@<TRIPOS>BOND
     1     1     4 ar  
     2     1    15 1   
     3     1    16 ar  
     4     2    16 ar  
     5     2    17 ar  
     6     2    22 1   
     7     3     4 ar  
     8     3    17 ar  
     9     3    23 1   
    10     4    24 1   
    11     5     6 ar  
    12     5    10 ar  
    13     5    43 1   
    14     6     7 ar  
    15     6    25 1   
    16     7     8 ar  
    17     7    26 1   
    18     8     9 ar  
    19     8    27 1   
    20     9    10 ar  
    21     9    28 1   
    22    10    11 1   
    23    11    12 1   
    24    12    13 1   
    25    12    29 1   
    26    12    30 1   
    27    13    14 2   
    28    13    15 1   
    29    15    31 1   
    30    16    32 1   
    31    17    18 1   
    32    18    33 1   
    33    19    34 1   
    34    19    35 1   
    35    19    36 1   
    36    19    43 1   
    37    20    37 1   
    38    20    38 1   
    39    20    39 1   
    40    20    43 1   
    41    21    40 1   
    42    21    41 1   
    43    21    42 1   
    44    21    43 1   
@<TRIPOS>SUBSTRUCTURE
     1 J7F         1 TEMP              0 ****  ****    0 ROOT
