@<TRIPOS>MOLECULE
J7F
   43    44     1     0     0
SMALL
No Charge or Current Charge


@<TRIPOS>ATOM
      1 C12          2.6610    32.0630   -48.1910 ca         1 J7F      -0.076000
      2 C14          1.9270    33.8750   -46.7190 ca         1 J7F      -0.159000
      3 C16          4.1570    32.9500   -46.4720 ca         1 J7F      -0.159000
      4 C17          3.9040    32.0570   -47.5280 ca         1 J7F      -0.083000
      5 C01         -0.5760    28.3160   -53.7900 ca         1 J7F      -0.080300
      6 C02         -0.5080    27.3080   -54.7910 ca         1 J7F      -0.082000
      7 C03          0.6450    26.5290   -54.9730 ca         1 J7F      -0.144000
      8 C04          1.7670    26.7280   -54.1650 ca         1 J7F      -0.077000
      9 C05          1.7360    27.7110   -53.1700 ca         1 J7F      -0.206000
     10 C06          0.5820    28.5060   -52.9720 ca         1 J7F       0.143100
     11 O07          0.5700    29.4730   -51.9830 os         1 J7F      -0.319100
     12 C08          1.6950    29.7320   -51.1110 c3         1 J7F       0.079600
     13 C09          1.4060    30.8650   -50.1000 c          1 J7F       0.604100
     14 O10          0.3340    31.4650   -50.0580 o          1 J7F      -0.549100
     15 N11          2.4770    31.1290   -49.2510 ns         1 J7F      -0.161000
     16 C13          1.6700    32.9830   -47.7760 ca         1 J7F      -0.083000
     17 C15          3.1700    33.8590   -46.0680 ca         1 J7F       0.131100
     18 O18          3.4250    34.7210   -45.0430 oh         1 J7F      -0.533100
     19 C20         -1.5660    30.6820   -53.8420 c3         1 J7F      -0.084100
     20 C21         -2.4610    28.9690   -52.1780 c3         1 J7F      -0.084100
     21 C22         -3.0040    28.7920   -54.6070 c3         1 J7F      -0.084100
     22 H1           1.1550    34.5770   -46.4130 ha         1 J7F       0.123500
     23 H2           5.1210    32.9360   -45.9690 ha         1 J7F       0.123500
     24 H3           4.6810    31.3570   -47.8310 ha         1 J7F       0.123000
     25 H4          -1.3410    27.1000   -55.4530 ha         1 J7F       0.116000
     26 H5           0.6660    25.7650   -55.7480 ha         1 J7F       0.115000
     27 H6           2.6600    26.1210   -54.3090 ha         1 J7F       0.111000
     28 H7           2.6240    27.8390   -52.5600 ha         1 J7F       0.109000
     29 H8           1.9520    28.8340   -50.5340 h1         1 J7F       0.047700
     30 H9           2.5760    30.0290   -51.6940 h1         1 J7F       0.047700
     31 H10          3.2860    30.5430   -49.4190 hn         1 J7F       0.151000
     32 H11          0.6970    33.0260   -48.2560 ha         1 J7F       0.123000
     33 H12          2.6290    35.2770   -44.8990 ho         1 J7F       0.466000
     34 H13         -0.8990    31.0990   -53.0810 hc         1 J7F       0.036922
     35 H14         -1.0960    30.8280   -54.8210 hc         1 J7F       0.036922
     36 H15         -2.4870    31.2780   -53.8180 hc         1 J7F       0.036922
     37 H16         -1.8070    29.3620   -51.3940 hc         1 J7F       0.036922
     38 H17         -3.4250    29.4810   -52.0730 hc         1 J7F       0.036922
     39 H18         -2.6240    27.9030   -51.9790 hc         1 J7F       0.036922
     40 H19         -3.8970    29.4100   -54.4500 hc         1 J7F       0.036922
     41 H20         -2.6840    28.9440   -55.6450 hc         1 J7F       0.036922
     42 H21         -3.3100    27.7450   -54.4810 hc         1 J7F       0.036922
     43 C19         -1.8750    29.1750   -53.6040 c3         1 J7F       0.014300
@<TRIPOS>BOND
     1     1     4 ar  
     2     1    15 1   
     3     1    16 ar  
     4     2    16 ar  
     5     2    17 ar  
     6     2    22 1   
     7     3     4 ar  
     8     3    17 ar  
     9     3    23 1   
    10     4    24 1   
    11     5     6 ar  
    12     5    10 ar  
    13     5    43 1   
    14     6     7 ar  
    15     6    25 1   
    16     7     8 ar  
    17     7    26 1   
    18     8     9 ar  
    19     8    27 1   
    20     9    10 ar  
    21     9    28 1   
    22    10    11 1   
    23    11    12 1   
    24    12    13 1   
    25    12    29 1   
    26    12    30 1   
    27    13    14 2   
    28    13    15 1   
    29    15    31 1   
    30    16    32 1   
    31    17    18 1   
    32    18    33 1   
    33    19    34 1   
    34    19    35 1   
    35    19    36 1   
    36    19    43 1   
    37    20    37 1   
    38    20    38 1   
    39    20    39 1   
    40    20    43 1   
    41    21    40 1   
    42    21    41 1   
    43    21    42 1   
    44    21    43 1   
@<TRIPOS>SUBSTRUCTURE
     1 J7F         1 TEMP              0 ****  ****    0 ROOT
