@<TRIPOS>MOLECULE
J7G
   40    42     1     0     0
SMALL
No Charge or Current Charge


@<TRIPOS>ATOM
      1 C2          -3.1180    -0.8970    -0.2340 c          1 J7G       0.675100
      2 C11         -0.6610    -1.6380    -0.1620 ca         1 J7G       0.022000
      3 C12          0.6460    -1.1360    -0.0750 ca         1 J7G      -0.215000
      4 C13          1.7320    -2.0260    -0.0740 ca         1 J7G       0.540000
      5 C15          0.3380    -3.8520    -0.2390 ca         1 J7G       0.357900
      6 C16         -0.8060    -3.0370    -0.2460 ca         1 J7G      -0.208000
      7 C18          3.0760    -1.5430     0.0140 cg         1 J7G      -0.323000
      8 C19          4.2170    -1.1160     0.0900 ch         1 J7G       0.016000
      9 C20          5.5420    -0.6000     0.1800 ca         1 J7G      -0.052000
     10 C21          5.7670     0.7880     0.0980 ca         1 J7G      -0.046000
     11 C22          7.0770     1.3170     0.1850 ca         1 J7G      -0.147600
     12 C23          8.1580     0.4210     0.3580 ca         1 J7G      -0.061000
     13 C24          7.9330    -0.9640     0.4400 ca         1 J7G      -0.155000
     14 C25          6.6290    -1.4750     0.3520 ca         1 J7G      -0.099000
     15 C26          7.3150     2.8140     0.0960 c          1 J7G       0.715600
     16 N1          -1.7440    -0.7170    -0.1610 ns         1 J7G      -0.155000
     17 N3          -3.7950     0.3120    -0.1980 ns         1 J7G      -0.160000
     18 O4          -3.6660    -1.9900    -0.3200 o          1 J7G      -0.593100
     19 C5          -5.1790     0.6280    -0.2450 ca         1 J7G       0.050000
     20 C6          -5.5590     1.9780    -0.1870 ca         1 J7G      -0.227000
     21 C7          -6.9200     2.3160    -0.2300 ca         1 J7G       0.469000
     22 N8          -7.9080     1.4040    -0.3270 nb         1 J7G      -0.681000
     23 C9          -7.5480     0.1030    -0.3830 ca         1 J7G       0.367900
     24 C10         -6.2110    -0.3260    -0.3460 ca         1 J7G      -0.192000
     25 N14          1.5920    -3.3630    -0.1540 nb         1 J7G      -0.671000
     26 Cl7         -7.4190     3.9990    -0.1590 cl         1 J7G      -0.176000
     27 O27          8.4630     3.2300     0.1760 o          1 J7G      -0.716000
     28 O28          6.3510     3.5520    -0.0540 o          1 J7G      -0.716000
     29 H1           0.8280    -0.0670    -0.0080 ha         1 J7G       0.131000
     30 H2           0.2450    -4.9360    -0.3030 h4         1 J7G       0.014100
     31 H3          -1.7760    -3.5160    -0.3170 ha         1 J7G       0.148000
     32 H4           4.9170     1.4560    -0.0350 ha         1 J7G       0.133000
     33 H5           9.1770     0.7950     0.4280 ha         1 J7G       0.131000
     34 H6           8.7730    -1.6420     0.5730 ha         1 J7G       0.092000
     35 H7           6.4650    -2.5490     0.4170 ha         1 J7G       0.097000
     36 H8          -1.4540     0.2490    -0.0950 hn         1 J7G       0.156000
     37 H9          -3.1960     1.1230    -0.1260 hn         1 J7G       0.157000
     38 H10         -4.8150     2.7650    -0.1080 ha         1 J7G       0.136000
     39 H11         -8.3590    -0.6210    -0.4610 h4         1 J7G       0.024100
     40 H12         -6.0140    -1.3910    -0.3960 ha         1 J7G       0.163000
@<TRIPOS>BOND
     1     1    16 1   
     2     1    17 1   
     3     1    18 2   
     4     2     3 ar  
     5     2     6 ar  
     6     2    16 1   
     7     3     4 ar  
     8     3    29 1   
     9     4     7 1   
    10     4    25 ar  
    11     5     6 ar  
    12     5    25 ar  
    13     5    30 1   
    14     6    31 1   
    15     7     8 3   
    16     8     9 1   
    17     9    10 ar  
    18     9    14 ar  
    19    10    11 ar  
    20    10    32 1   
    21    11    12 ar  
    22    11    15 1   
    23    12    13 ar  
    24    12    33 1   
    25    13    14 ar  
    26    13    34 1   
    27    14    35 1   
    28    15    27 1   
    29    15    28 1   
    30    16    36 1   
    31    17    19 1   
    32    17    37 1   
    33    19    20 ar  
    34    19    24 ar  
    35    20    21 ar  
    36    20    38 1   
    37    21    22 ar  
    38    21    26 1   
    39    22    23 ar  
    40    23    24 ar  
    41    23    39 1   
    42    24    40 1   
@<TRIPOS>SUBSTRUCTURE
     1 J7G         1 TEMP              0 ****  ****    0 ROOT
