@<TRIPOS>MOLECULE
J7G
   40    42     1     0     0
SMALL
abcg2


@<TRIPOS>ATOM
      1 C2          -3.0480    -0.7710    -0.2230 c          1 J7G       0.675100
      2 C11         -0.6890    -1.5130    -0.1300 ca         1 J7G       0.022000
      3 C12          0.6230    -1.0380    -0.0530 ca         1 J7G      -0.215000
      4 C13          1.6750    -1.9420    -0.0410 ca         1 J7G       0.540000
      5 C15          0.2580    -3.7010    -0.1700 ca         1 J7G       0.357900
      6 C16         -0.8700    -2.8950    -0.1920 ca         1 J7G      -0.208000
      7 C18          3.0180    -1.4640     0.0340 cg         1 J7G      -0.323000
      8 C19          4.1520    -1.0540     0.0980 ch         1 J7G       0.016000
      9 C20          5.4940    -0.5870     0.1710 ca         1 J7G      -0.052000
     10 C21          5.7720     0.7810     0.0900 ca         1 J7G      -0.046000
     11 C22          7.0780     1.2480     0.1590 ca         1 J7G      -0.147600
     12 C23          8.1110     0.3270     0.3130 ca         1 J7G      -0.061000
     13 C24          7.8470    -1.0340     0.3960 ca         1 J7G      -0.155000
     14 C25          6.5440    -1.4970     0.3240 ca         1 J7G      -0.099000
     15 C26          7.3710     2.7440     0.0660 c          1 J7G       0.715600
     16 N1          -1.6960    -0.5650    -0.1290 ns         1 J7G      -0.155000
     17 N3          -3.7520     0.4050    -0.1230 ns         1 J7G      -0.160000
     18 O4          -3.5630    -1.8580    -0.3770 o          1 J7G      -0.593100
     19 C5          -5.1150     0.5910    -0.2270 ca         1 J7G       0.050000
     20 C6          -5.5800     1.9040    -0.1130 ca         1 J7G      -0.227000
     21 C7          -6.9390     2.1220    -0.2160 ca         1 J7G       0.469000
     22 N8          -7.8460     1.1950    -0.4140 nb         1 J7G      -0.681000
     23 C9          -7.3920    -0.0510    -0.5220 ca         1 J7G       0.367900
     24 C10         -6.0620    -0.4160    -0.4390 ca         1 J7G      -0.192000
     25 N14          1.5060    -3.2680    -0.0970 nb         1 J7G      -0.671000
     26 CL7         -7.5210     3.7520    -0.0770 cl         1 J7G      -0.176000
     27 O27          8.5670     3.0790     0.1380 o          1 J7G      -0.716000
     28 O28          6.3870     3.4940    -0.0750 o          1 J7G      -0.716000
     29 H1           0.8240     0.0240    -0.0040 ha         1 J7G       0.131000
     30 H2           0.1280    -4.7770    -0.2150 h4         1 J7G       0.014100
     31 H3          -1.8430    -3.3520    -0.2550 ha         1 J7G       0.148000
     32 H4           4.9580     1.4830    -0.0290 ha         1 J7G       0.133000
     33 H5           9.1320     0.6810     0.3700 ha         1 J7G       0.131000
     34 H6           8.6590    -1.7380     0.5160 ha         1 J7G       0.092000
     35 H7           6.3350    -2.5570     0.3870 ha         1 J7G       0.097000
     36 H8          -1.3720     0.3890    -0.0530 hn         1 J7G       0.156000
     37 H9          -3.2260     1.2490     0.0520 hn         1 J7G       0.157000
     38 H10         -4.8980     2.7280     0.0480 ha         1 J7G       0.136000
     39 H11         -8.1400    -0.8170    -0.6870 h4         1 J7G       0.024100
     40 H12         -5.7930    -1.4530    -0.5370 ha         1 J7G       0.163000
@<TRIPOS>BOND
     1     1    16 1   
     2     1    17 1   
     3     1    18 2   
     4     2     3 ar  
     5     2     6 ar  
     6     2    16 1   
     7     3     4 ar  
     8     3    29 1   
     9     4     7 1   
    10     4    25 ar  
    11     5     6 ar  
    12     5    25 ar  
    13     5    30 1   
    14     6    31 1   
    15     7     8 3   
    16     8     9 1   
    17     9    10 ar  
    18     9    14 ar  
    19    10    11 ar  
    20    10    32 1   
    21    11    12 ar  
    22    11    15 1   
    23    12    13 ar  
    24    12    33 1   
    25    13    14 ar  
    26    13    34 1   
    27    14    35 1   
    28    15    27 1   
    29    15    28 1   
    30    16    36 1   
    31    17    19 1   
    32    17    37 1   
    33    19    20 ar  
    34    19    24 ar  
    35    20    21 ar  
    36    20    38 1   
    37    21    22 ar  
    38    21    26 1   
    39    22    23 ar  
    40    23    24 ar  
    41    23    39 1   
    42    24    40 1   
@<TRIPOS>SUBSTRUCTURE
     1 J7G         1 TEMP              0 ****  ****    0 ROOT
