@<TRIPOS>MOLECULE
J7H
   27    26     1     0     0
SMALL
bcc


@<TRIPOS>ATOM
      1 N           -1.4050     1.5420    -0.8400 n8         1 J7H      -0.874800
      2 CA          -1.2800     0.4380     0.1090 c3         1 J7H       0.037200
      3 C           -2.4480    -0.5570    -0.1280 c          1 J7H       0.939600
      4 O           -2.7870    -1.2700     0.8380 o          1 J7H      -0.835300
      5 CB1          0.0180    -0.3830    -0.0790 c3         1 J7H      -0.096400
      6 CB2         -1.3450     1.0230     1.5180 c3         1 J7H      -0.045100
      7 CG           1.3220     0.3910     0.0830 c3         1 J7H      -0.077400
      8 CD           2.5540    -0.4790    -0.1360 c3         1 J7H      -0.077400
      9 CE           3.8630     0.2910    -0.0130 c3         1 J7H      -0.076400
     10 CZ           5.0890    -0.5870    -0.2210 c3         1 J7H      -0.086100
     11 OXT         -2.9270    -0.6040    -1.2790 o          1 J7H      -0.835300
     12 H1          -0.5680     2.1110    -0.8140 hn         1 J7H       0.319800
     13 H2          -1.4670     1.1600    -1.7760 hn         1 J7H       0.319800
     14 H4           0.0110    -1.2180     0.6300 hc         1 J7H       0.043200
     15 H5          -0.0000    -0.8320    -1.0790 hc         1 J7H       0.043200
     16 H6          -2.3170     1.4820     1.7050 hc         1 J7H       0.015367
     17 H7          -1.1820     0.2580     2.2760 hc         1 J7H       0.015367
     18 H8          -0.5890     1.7990     1.6600 hc         1 J7H       0.015367
     19 H9           1.3540     1.2260    -0.6250 hc         1 J7H       0.026200
     20 H10          1.3750     0.8360     1.0820 hc         1 J7H       0.026200
     21 H11          2.5500    -1.3050     0.5850 hc         1 J7H       0.034200
     22 H12          2.5010    -0.9450    -1.1270 hc         1 J7H       0.034200
     23 H13          3.8700     1.1080    -0.7420 hc         1 J7H       0.031200
     24 H14          3.9120     0.7650     0.9720 hc         1 J7H       0.031200
     25 H15          5.1340    -1.3860     0.5210 hc         1 J7H       0.023700
     26 H16          5.0750    -1.0560    -1.2070 hc         1 J7H       0.023700
     27 H17          6.0130    -0.0120    -0.1440 hc         1 J7H       0.023700
@<TRIPOS>BOND
     1     1     2 1   
     2     1    12 1   
     3     1    13 1   
     4     2     3 1   
     5     2     5 1   
     6     2     6 1   
     7     3     4 1   
     8     3    11 1   
     9     5     7 1   
    10     5    14 1   
    11     5    15 1   
    12     6    16 1   
    13     6    17 1   
    14     6    18 1   
    15     7     8 1   
    16     7    19 1   
    17     7    20 1   
    18     8     9 1   
    19     8    21 1   
    20     8    22 1   
    21     9    10 1   
    22     9    23 1   
    23     9    24 1   
    24    10    25 1   
    25    10    26 1   
    26    10    27 1   
@<TRIPOS>SUBSTRUCTURE
     1 J7H         1 TEMP              0 ****  ****    0 ROOT
