@<TRIPOS>MOLECULE
J7H
   27    26     1     0     0
SMALL
No Charge or Current Charge


@<TRIPOS>ATOM
      1 N           -1.3310     1.5780    -0.8650 n8         1 J7H      -0.874800
      2 CA          -1.3250     0.4240     0.1100 c3         1 J7H       0.037200
      3 C           -2.5420    -0.6170    -0.0750 c          1 J7H       0.939600
      4 O           -3.0770    -1.1190     0.9110 o          1 J7H      -0.835300
      5 CB1          0.0040    -0.3750    -0.1000 c3         1 J7H      -0.096400
      6 CB2         -1.3770     1.0460     1.5380 c3         1 J7H      -0.045100
      7 CG           1.3350     0.4050     0.0910 c3         1 J7H      -0.077400
      8 CD           2.5810    -0.4710    -0.1690 c3         1 J7H      -0.077400
      9 CE           3.9090     0.2940     0.0250 c3         1 J7H      -0.076400
     10 CZ           5.1520    -0.5800    -0.2340 c3         1 J7H      -0.086100
     11 OXT         -2.9810    -0.8080    -1.2080 o          1 J7H      -0.835300
     12 H1          -0.3690     1.9020    -0.9980 hn         1 J7H       0.319800
     13 H2          -1.6140     1.2210    -1.7830 hn         1 J7H       0.319800
     14 H4           0.0050    -1.2290     0.5890 hc         1 J7H       0.043200
     15 H5          -0.0050    -0.8060    -1.1090 hc         1 J7H       0.043200
     16 H6          -2.3590     1.4950     1.7290 hc         1 J7H       0.015367
     17 H7          -1.1960     0.2850     2.3070 hc         1 J7H       0.015367
     18 H8          -0.6250     1.8340     1.6650 hc         1 J7H       0.015367
     19 H9           1.3660     1.2670    -0.5850 hc         1 J7H       0.026200
     20 H10          1.3920     0.7940     1.1140 hc         1 J7H       0.026200
     21 H11          2.5620    -1.3350     0.5070 hc         1 J7H       0.034200
     22 H12          2.5390    -0.8640    -1.1920 hc         1 J7H       0.034200
     23 H13          3.9340     1.1570    -0.6520 hc         1 J7H       0.031200
     24 H14          3.9570     0.6860     1.0480 hc         1 J7H       0.031200
     25 H15          5.1750    -1.4350     0.4520 hc         1 J7H       0.023700
     26 H16          5.1510    -0.9600    -1.2630 hc         1 J7H       0.023700
     27 H17          6.0670     0.0050    -0.0850 hc         1 J7H       0.023700
@<TRIPOS>BOND
     1     1     2 1   
     2     1    12 1   
     3     1    13 1   
     4     2     3 1   
     5     2     5 1   
     6     2     6 1   
     7     3     4 1   
     8     3    11 1   
     9     5     7 1   
    10     5    14 1   
    11     5    15 1   
    12     6    16 1   
    13     6    17 1   
    14     6    18 1   
    15     7     8 1   
    16     7    19 1   
    17     7    20 1   
    18     8     9 1   
    19     8    21 1   
    20     8    22 1   
    21     9    10 1   
    22     9    23 1   
    23     9    24 1   
    24    10    25 1   
    25    10    26 1   
    26    10    27 1   
@<TRIPOS>SUBSTRUCTURE
     1 J7H         1 TEMP              0 ****  ****    0 ROOT
