@<TRIPOS>MOLECULE
J7I
   78    82     1     0     0
SMALL
bcc


@<TRIPOS>ATOM
      1 N1         -12.2030   -32.6710     9.6030 nh         1 J7I      -0.677700
      2 N3         -10.2080   -27.1750    10.1470 nb         1 J7I      -0.798500
      3 C4         -11.4570   -31.5490     9.7020 cc         1 J7I       0.712300
      4 C5         -10.9280   -29.4270     9.9210 cd         1 J7I       0.332300
      5 C6         -11.2400   -28.0050    10.1590 ca         1 J7I       0.707000
      6 C7         -10.4750   -25.8810    10.3700 ca         1 J7I       0.728700
      7 C8         -11.7770   -25.4350    10.5970 ca         1 J7I      -0.524600
      8 C10         -9.6740   -29.9030     9.7060 cc         1 J7I      -0.172400
      9 C13        -10.4110   -35.7550    10.6150 cp         1 J7I      -0.053000
     10 C15        -10.4880   -36.1440    13.0710 ca         1 J7I      -0.184000
     11 C17         -8.8110   -37.4720    14.1680 ca         1 J7I      -0.315500
     12 C20         -8.6920   -43.8910    14.9500 c3         1 J7I       0.154100
     13 C21         -7.3210   -41.9760    15.3890 c6         1 J7I       0.163800
     14 C22         -7.2690   -40.6130    16.0530 c6         1 J7I       0.204300
     15 C24         -6.3940   -38.7300    11.7450 c3         1 J7I       0.129700
     16 C26        -10.3610   -36.4180     9.3900 ca         1 J7I      -0.101000
     17 C28        -11.5120   -34.5930     8.2830 ca         1 J7I      -0.044300
     18 C1         -15.5420   -32.5690    11.4750 c3         1 J7I      -0.086100
     19 C3         -13.6410   -32.6130     9.8300 c3         1 J7I       0.240800
     20 N2         -11.9290   -30.3630     9.9200 nd         1 J7I      -0.689000
     21 N4          -9.4190   -25.0400    10.4010 nv         1 J7I      -0.958000
     22 C9         -12.7810   -26.3990    10.5830 ca         1 J7I       0.728700
     23 N5         -14.0820   -26.0810    10.7540 nv         1 J7I      -0.958000
     24 N6         -12.5090   -27.6970    10.3630 nb         1 J7I      -0.798500
     25 S1          -9.7200   -31.6130     9.4890 ss         1 J7I      -0.246300
     26 C11        -11.5690   -33.9370     9.5150 ca         1 J7I       0.115600
     27 C12        -11.0230   -34.5050    10.6570 ca         1 J7I      -0.104000
     28 C14         -9.8570   -36.3520    11.8450 cp         1 J7I       0.064000
     29 C16         -9.9620   -36.7000    14.2210 ca         1 J7I       0.000000
     30 O1          -9.0630   -37.6860    16.7360 o          1 J7I      -0.617800
     31 O2          -6.7510   -37.7920    15.8090 o          1 J7I      -0.617800
     32 N7          -8.2730   -39.7540    15.4270 n3         1 J7I      -0.743500
     33 C18         -9.6220   -40.3120    15.4880 c6         1 J7I       0.204300
     34 C19         -9.6130   -41.6820    14.8380 c6         1 J7I       0.163800
     35 N8          -8.6480   -42.5470    15.4810 n3         1 J7I      -0.715600
     36 C23         -8.1650   -37.6980    12.9430 ca         1 J7I       0.248100
     37 O3          -7.0650   -38.4500    12.9620 os         1 J7I      -0.303900
     38 C25         -8.7000   -37.1280    11.7920 ca         1 J7I      -0.237000
     39 C27        -10.9030   -35.8440     8.2510 ca         1 J7I      -0.133000
     40 C29        -12.0850   -33.9710     7.0470 c3         1 J7I      -0.047800
     41 H1         -11.9950   -24.3900    10.7780 ha         1 J7I       0.142000
     42 H2          -8.7460   -29.3580     9.6750 h4         1 J7I       0.191000
     43 H3         -11.4020   -35.5690    13.1310 ha         1 J7I       0.142000
     44 H4          -7.9900   -44.5280    15.4890 h1         1 J7I       0.031700
     45 H5          -9.6910   -44.3090    15.0800 h1         1 J7I       0.031700
     46 H6          -8.4410   -43.9440    13.8800 h1         1 J7I       0.031700
     47 H7          -6.6110   -42.6310    15.8980 h1         1 J7I       0.039200
     48 H8          -6.9850   -41.8790    14.3420 h1         1 J7I       0.039200
     49 H9          -7.4480   -40.7180    17.1290 h1         1 J7I       0.060200
     50 H10         -6.2790   -40.1870    15.9100 h1         1 J7I       0.060200
     51 H11         -5.5580   -39.3740    12.0030 h1         1 J7I       0.047367
     52 H12         -7.0420   -39.2540    11.0390 h1         1 J7I       0.047367
     53 H13         -6.0110   -37.8210    11.2750 h1         1 J7I       0.047367
     54 H14         -9.9150   -37.4020     9.3210 ha         1 J7I       0.135000
     55 H15        -15.8190   -32.5870    12.5290 hc         1 J7I       0.033367
     56 H16        -15.9510   -31.6550    11.0420 hc         1 J7I       0.033367
     57 H17        -16.0340   -33.4140    10.9910 hc         1 J7I       0.033367
     58 H18        -13.6440   -33.5440    11.7700 hc         1 J7I       0.049200
     59 H19        -13.5610   -31.7910    11.8130 hc         1 J7I       0.049200
     60 H20        -14.0300   -31.7140     9.3490 h1         1 J7I       0.059700
     61 H21        -14.0860   -33.4670     9.3140 h1         1 J7I       0.059700
     62 H22         -8.5420   -25.3700    10.0360 hn         1 J7I       0.428300
     63 H23         -9.5750   -24.0480    10.3500 hn         1 J7I       0.428300
     64 H24        -14.7290   -26.8280    10.9410 hn         1 J7I       0.428300
     65 H25        -14.3270   -25.1790    11.1260 hn         1 J7I       0.428300
     66 H26        -11.0670   -33.9470    11.5840 ha         1 J7I       0.150000
     67 H27        -10.4610   -36.5410    15.1660 ha         1 J7I       0.165000
     68 H28        -10.3160   -39.6700    14.9430 h1         1 J7I       0.060200
     69 H29         -9.9720   -40.3910    16.5230 h1         1 J7I       0.060200
     70 H30         -9.4130   -41.5690    13.7590 h1         1 J7I       0.039200
     71 H31        -10.6110   -42.1160    14.9390 h1         1 J7I       0.039200
     72 H33         -8.2030   -37.2630    10.8410 ha         1 J7I       0.139000
     73 H34        -10.8520   -36.3840     7.3130 ha         1 J7I       0.137000
     74 H35        -13.1700   -33.8750     7.1140 hc         1 J7I       0.050367
     75 H36        -11.6850   -32.9700     6.8840 hc         1 J7I       0.050367
     76 H37        -11.8600   -34.5730     6.1690 hc         1 J7I       0.050367
     77 S2          -8.1610   -38.1230    15.6760 sy         1 J7I       1.314200
     78 C2         -14.0310   -32.6340    11.3020 c3         1 J7I      -0.102400
@<TRIPOS>BOND
     1     1     3 1   
     2     1    19 1   
     3     1    26 1   
     4     2     5 ar  
     5     2     6 ar  
     6     3    20 2   
     7     3    25 1   
     8     4     5 1   
     9     4     8 2   
    10     4    20 1   
    11     5    24 ar  
    12     6     7 ar  
    13     6    21 1   
    14     7    22 ar  
    15     7    41 1   
    16     8    25 1   
    17     8    42 1   
    18     9    16 ar  
    19     9    27 ar  
    20     9    28 1   
    21    10    28 ar  
    22    10    29 ar  
    23    10    43 1   
    24    11    29 ar  
    25    11    36 ar  
    26    11    77 1   
    27    12    35 1   
    28    12    44 1   
    29    12    45 1   
    30    12    46 1   
    31    13    14 1   
    32    13    35 1   
    33    13    47 1   
    34    13    48 1   
    35    14    32 1   
    36    14    49 1   
    37    14    50 1   
    38    15    37 1   
    39    15    51 1   
    40    15    52 1   
    41    15    53 1   
    42    16    39 ar  
    43    16    54 1   
    44    17    26 ar  
    45    17    39 ar  
    46    17    40 1   
    47    18    55 1   
    48    18    56 1   
    49    18    57 1   
    50    18    78 1   
    51    19    60 1   
    52    19    61 1   
    53    19    78 1   
    54    21    62 1   
    55    21    63 1   
    56    22    23 1   
    57    22    24 ar  
    58    23    64 1   
    59    23    65 1   
    60    26    27 ar  
    61    27    66 1   
    62    28    38 ar  
    63    29    67 1   
    64    30    77 2   
    65    31    77 2   
    66    32    33 1   
    67    32    77 1   
    68    33    34 1   
    69    33    68 1   
    70    33    69 1   
    71    34    35 1   
    72    34    70 1   
    73    34    71 1   
    74    36    37 1   
    75    36    38 ar  
    76    38    72 1   
    77    39    73 1   
    78    40    74 1   
    79    40    75 1   
    80    40    76 1   
    81    58    78 1   
    82    59    78 1   
@<TRIPOS>SUBSTRUCTURE
     1 J7I         1 TEMP              0 ****  ****    0 ROOT
