@<TRIPOS>MOLECULE
J7I
   78    82     1     0     0
SMALL
No Charge or Current Charge


@<TRIPOS>ATOM
      1 N1         -12.0750   -32.5080     9.9870 nh         1 J7I      -0.816100
      2 N3         -10.5310   -26.7780    10.1240 nb         1 J7I      -0.272500
      3 C4         -11.4150   -31.3080     9.8290 cc         1 J7I       0.712300
      4 C5         -11.0980   -29.1080     9.7550 cd         1 J7I       0.267000
      5 C6         -11.5010   -27.6780     9.8330 ca         1 J7I       0.181000
      6 C7         -10.9010   -25.4930    10.1760 ca         1 J7I       0.400400
      7 C8         -12.2060   -25.0780     9.9430 ca         1 J7I      -0.376000
      8 C10         -9.8250   -29.5300     9.4330 cc         1 J7I      -0.234000
      9 C13        -10.2940   -35.7010    10.7600 cp         1 J7I      -0.053000
     10 C15        -10.2530   -36.2780    13.2260 ca         1 J7I      -0.166000
     11 C17         -8.5110   -37.6880    14.1820 ca         1 J7I      -0.315500
     12 C20         -9.0720   -44.3980    15.1000 c3         1 J7I       0.154100
     13 C21         -7.6080   -42.5750    15.9140 c6         1 J7I       0.163800
     14 C22         -7.5310   -41.0740    16.3360 c6         1 J7I       0.204300
     15 C24         -6.1350   -38.8030    11.5030 c3         1 J7I       0.152900
     16 C26        -10.2860   -36.2970     9.4760 ca         1 J7I      -0.083000
     17 C28        -11.4670   -34.3870     8.5180 ca         1 J7I      -0.044300
     18 C1         -15.2460   -32.3910    12.2560 c3         1 J7I      -0.086100
     19 C3         -13.5100   -32.5100    10.3610 c3         1 J7I       0.240800
     20 N2         -12.0100   -30.1380     9.9720 nd         1 J7I      -0.689000
     21 N4          -9.9280   -24.6000    10.4680 nv         1 J7I      -1.068400
     22 C9         -13.1280   -26.0750     9.6450 ca         1 J7I       0.400400
     23 N5         -14.4230   -25.7730     9.4010 nv         1 J7I      -1.068400
     24 N6         -12.7980   -27.3700     9.5840 nb         1 J7I      -0.272500
     25 S1          -9.7180   -31.2650     9.4150 ss         1 J7I      -0.101400
     26 C11        -11.4900   -33.7740     9.7930 ca         1 J7I       0.254000
     27 C12        -10.9050   -34.4300    10.8900 ca         1 J7I      -0.086000
     28 C14         -9.6780   -36.3860    11.9400 cp         1 J7I       0.064000
     29 C16         -9.6820   -36.9200    14.3340 ca         1 J7I       0.018000
     30 O1          -8.6420   -38.2310    16.8010 o          1 J7I      -0.547000
     31 O2          -6.3640   -38.2680    15.6300 o          1 J7I      -0.547000
     32 N7          -8.0100   -40.1590    15.2620 n3         1 J7I      -0.743500
     33 C18         -9.3760   -40.5530    14.8060 c6         1 J7I       0.204300
     34 C19         -9.4510   -42.0560    14.3920 c6         1 J7I       0.163800
     35 N8          -8.9810   -42.9720    15.4750 n3         1 J7I      -0.715600
     36 C23         -7.9170   -37.8160    12.9120 ca         1 J7I       0.248100
     37 O3          -6.7780   -38.5860    12.7710 os         1 J7I      -0.327100
     38 C25         -8.5050   -37.1650    11.8050 ca         1 J7I      -0.219000
     39 C27        -10.8630   -35.6500     8.3720 ca         1 J7I      -0.115000
     40 C29        -12.0830   -33.7020     7.3010 c3         1 J7I      -0.047800
     41 H1         -12.4900   -24.0320     9.9880 ha         1 J7I       0.124000
     42 H2          -8.9520   -28.9310     9.2080 h4         1 J7I       0.173000
     43 H3         -11.1640   -35.7020    13.3670 ha         1 J7I       0.124000
     44 H4          -8.7650   -45.0400    15.9370 h1         1 J7I       0.031700
     45 H5         -10.1040   -44.6630    14.8320 h1         1 J7I       0.031700
     46 H6          -8.4250   -44.6200    14.2410 h1         1 J7I       0.031700
     47 H7          -7.2860   -43.1950    16.7640 h1         1 J7I       0.039200
     48 H8          -6.8880   -42.7450    15.1010 h1         1 J7I       0.039200
     49 H9          -8.1310   -40.9390    17.2480 h1         1 J7I       0.060200
     50 H10         -6.4880   -40.8460    16.6010 h1         1 J7I       0.060200
     51 H11         -5.2600   -39.4520    11.6290 h1         1 J7I       0.047367
     52 H12         -6.8200   -39.2880    10.7960 h1         1 J7I       0.047367
     53 H13         -5.7930   -37.8540    11.0710 h1         1 J7I       0.047367
     54 H14         -9.8390   -37.2790     9.3350 ha         1 J7I       0.117000
     55 H15        -15.3670   -32.3070    13.3420 hc         1 J7I       0.033367
     56 H16        -15.7630   -31.5460    11.7860 hc         1 J7I       0.033367
     57 H17        -15.7280   -33.3200    11.9270 hc         1 J7I       0.033367
     58 H18        -13.2560   -33.2260    12.3920 hc         1 J7I       0.049200
     59 H19        -13.2900   -31.4680    12.2520 hc         1 J7I       0.049200
     60 H20        -14.0440   -31.7010     9.8440 h1         1 J7I       0.059700
     61 H21        -13.9760   -33.4420    10.0120 h1         1 J7I       0.059700
     62 H22         -8.9600   -24.9110    10.4300 hn         1 J7I       0.483500
     63 H23        -10.1000   -23.6120    10.3000 hn         1 J7I       0.483500
     64 H24        -15.1000   -26.5330     9.3930 hn         1 J7I       0.483500
     65 H25        -14.7710   -24.8520     9.6560 hn         1 J7I       0.483500
     66 H26        -10.9130   -33.9330    11.8560 ha         1 J7I       0.132000
     67 H27        -10.1600   -36.8160    15.3080 ha         1 J7I       0.147000
     68 H28         -9.6930   -39.9550    13.9390 h1         1 J7I       0.060200
     69 H29        -10.1110   -40.3740    15.6050 h1         1 J7I       0.060200
     70 H30         -8.8410   -42.1980    13.4880 h1         1 J7I       0.039200
     71 H31        -10.4900   -42.2930    14.1180 h1         1 J7I       0.039200
     72 H33         -8.0530   -37.2400    10.8220 ha         1 J7I       0.121000
     73 H34        -10.8410   -36.1360     7.3990 ha         1 J7I       0.119000
     74 H35        -13.1530   -33.5150     7.4540 hc         1 J7I       0.050367
     75 H36        -11.5990   -32.7380     7.1050 hc         1 J7I       0.050367
     76 H37        -11.9820   -34.3100     6.3940 hc         1 J7I       0.050367
     77 S2          -7.8120   -38.5100    15.6230 sy         1 J7I       1.172600
     78 C2         -13.7510   -32.3910    11.8810 c3         1 J7I      -0.102400
@<TRIPOS>BOND
     1     1     3 1   
     2     1    19 1   
     3     1    26 1   
     4     2     5 ar  
     5     2     6 ar  
     6     3    20 2   
     7     3    25 1   
     8     4     5 1   
     9     4     8 2   
    10     4    20 1   
    11     5    24 ar  
    12     6     7 ar  
    13     6    21 1   
    14     7    22 ar  
    15     7    41 1   
    16     8    25 1   
    17     8    42 1   
    18     9    16 ar  
    19     9    27 ar  
    20     9    28 1   
    21    10    28 ar  
    22    10    29 ar  
    23    10    43 1   
    24    11    29 ar  
    25    11    36 ar  
    26    11    77 1   
    27    12    35 1   
    28    12    44 1   
    29    12    45 1   
    30    12    46 1   
    31    13    14 1   
    32    13    35 1   
    33    13    47 1   
    34    13    48 1   
    35    14    32 1   
    36    14    49 1   
    37    14    50 1   
    38    15    37 1   
    39    15    51 1   
    40    15    52 1   
    41    15    53 1   
    42    16    39 ar  
    43    16    54 1   
    44    17    26 ar  
    45    17    39 ar  
    46    17    40 1   
    47    18    55 1   
    48    18    56 1   
    49    18    57 1   
    50    18    78 1   
    51    19    60 1   
    52    19    61 1   
    53    19    78 1   
    54    21    62 1   
    55    21    63 1   
    56    22    23 1   
    57    22    24 ar  
    58    23    64 1   
    59    23    65 1   
    60    26    27 ar  
    61    27    66 1   
    62    28    38 ar  
    63    29    67 1   
    64    30    77 2   
    65    31    77 2   
    66    32    33 1   
    67    32    77 1   
    68    33    34 1   
    69    33    68 1   
    70    33    69 1   
    71    34    35 1   
    72    34    70 1   
    73    34    71 1   
    74    36    37 1   
    75    36    38 ar  
    76    38    72 1   
    77    39    73 1   
    78    40    74 1   
    79    40    75 1   
    80    40    76 1   
    81    58    78 1   
    82    59    78 1   
@<TRIPOS>SUBSTRUCTURE
     1 J7I         1 TEMP              0 ****  ****    0 ROOT
