@<TRIPOS>MOLECULE
J7J
   41    43     1     0     0
SMALL
abcg2


@<TRIPOS>ATOM
      1 C1          -5.8870     0.4710    -0.2190 ca         1 J7J      -0.158000
      2 C2          -5.2350    -0.7140     0.0910 ca         1 J7J       0.013000
      3 C3          -7.3770    -1.7640     0.1910 ca         1 J7J       0.324900
      4 C12          1.5950     1.2800     0.2560 cc         1 J7J       0.493000
      5 C13          0.7670     0.1240     0.1860 cc         1 J7J      -0.179900
      6 C14         -0.5580     0.4680     0.2180 cd         1 J7J      -0.054400
      7 C17          3.0110     1.2270     0.2290 cg         1 J7J      -0.208000
      8 C18          4.2150     1.1510     0.1970 ch         1 J7J      -0.053000
      9 C19          5.6300     1.0340     0.1450 ca         1 J7J       0.016000
     10 C20          6.2130    -0.2250    -0.0320 ca         1 J7J      -0.077000
     11 C21          7.5900    -0.3680    -0.0990 ca         1 J7J      -0.092300
     12 C22          8.3910     0.7690     0.0030 ca         1 J7J      -0.071000
     13 C23          7.8200     2.0210     0.1770 ca         1 J7J      -0.119000
     14 C24          6.4440     2.1640     0.2510 ca         1 J7J      -0.076000
     15 C26          8.2030    -1.7330    -0.2510 c3         1 J7J       0.209900
     16 N4          -8.0070    -0.6360    -0.1280 nb         1 J7J      -0.651000
     17 C5          -7.2700     0.4280    -0.3060 ca         1 J7J       0.446000
     18 C6          -6.0040    -1.8710     0.3270 ca         1 J7J       0.138000
     19 CL7         -8.1110     1.9010    -0.6900 cl         1 J7J      -0.159000
     20 N8          -3.8600    -0.8760     0.1450 ns         1 J7J      -0.146000
     21 C9          -2.9150     0.0980     0.1980 c          1 J7J       0.660100
     22 O10         -3.1340     1.2920     0.2770 o          1 J7J      -0.594100
     23 N11          0.9600     2.4220     0.3390 nd         1 J7J      -0.537100
     24 S15         -0.6740     2.1860     0.3350 ss         1 J7J       0.448100
     25 N16         -1.6270    -0.3770     0.1640 ns         1 J7J      -0.381100
     26 O27          9.2450    -1.6720    -1.1940 oh         1 J7J      -0.654000
     27 N28         -5.3540    -3.0720     0.6180 nv         1 J7J      -1.056000
     28 H1          -5.3530     1.3870    -0.4110 ha         1 J7J       0.172000
     29 H2          -8.0000    -2.6380     0.3490 h4         1 J7J       0.025100
     30 H3           5.5730    -1.0950    -0.1230 ha         1 J7J       0.119000
     31 H4           9.4680     0.6780    -0.0510 ha         1 J7J       0.125000
     32 H5           8.4540     2.8940     0.2570 ha         1 J7J       0.117000
     33 H6           6.0000     3.1400     0.3870 ha         1 J7J       0.125000
     34 H7           8.5710    -2.0620     0.7300 h1         1 J7J       0.026200
     35 H8           7.4230    -2.4460    -0.5450 h1         1 J7J       0.026200
     36 H9          -3.5590    -1.8430     0.1110 hn         1 J7J       0.178000
     37 H10         -1.4440    -1.3690     0.0890 hn         1 J7J       0.340500
     38 H11          9.7240    -2.5050    -1.1640 ho         1 J7J       0.444000
     39 H12         -5.9780    -3.8660     0.6040 hn         1 J7J       0.435000
     40 H13         -4.8710    -3.0590     1.5080 hn         1 J7J       0.435000
     41 BR2          1.4110    -1.6170     0.0660 br         1 J7J      -0.048100
@<TRIPOS>BOND
     1     1     2 ar  
     2     1    17 ar  
     3     1    28 1   
     4     2    18 ar  
     5     2    20 1   
     6     3    16 ar  
     7     3    18 ar  
     8     3    29 1   
     9     4     5 1   
    10     4     7 1   
    11     4    23 2   
    12     5     6 2   
    13     5    41 1   
    14     6    24 1   
    15     6    25 1   
    16     7     8 3   
    17     8     9 1   
    18     9    10 ar  
    19     9    14 ar  
    20    10    11 ar  
    21    10    30 1   
    22    11    12 ar  
    23    11    15 1   
    24    12    13 ar  
    25    12    31 1   
    26    13    14 ar  
    27    13    32 1   
    28    14    33 1   
    29    15    26 1   
    30    15    34 1   
    31    15    35 1   
    32    16    17 ar  
    33    17    19 1   
    34    18    27 1   
    35    20    21 1   
    36    20    36 1   
    37    21    22 2   
    38    21    25 1   
    39    23    24 1   
    40    25    37 1   
    41    26    38 1   
    42    27    39 1   
    43    27    40 1   
@<TRIPOS>SUBSTRUCTURE
     1 J7J         1 TEMP              0 ****  ****    0 ROOT
