@<TRIPOS>MOLECULE
J7J
   41    43     1     0     0
SMALL
No Charge or Current Charge


@<TRIPOS>ATOM
      1 C1          -6.0190     0.2630    -0.3310 ca         1 J7J      -0.158000
      2 C2          -5.1820    -0.8170     0.0280 ca         1 J7J       0.013000
      3 C3          -7.2110    -2.1520     0.1690 ca         1 J7J       0.324900
      4 C12          1.6340     1.7110     0.3250 cc         1 J7J       0.493000
      5 C13          0.7740     0.5830     0.1940 cc         1 J7J      -0.179900
      6 C14         -0.5230     0.9950     0.2570 cd         1 J7J      -0.054400
      7 C17          3.0470     1.5550     0.2920 cg         1 J7J      -0.208000
      8 C18          4.2500     1.3520     0.2550 ch         1 J7J      -0.053000
      9 C19          5.6500     1.0910     0.2090 ca         1 J7J       0.016000
     10 C20          6.1160    -0.2270     0.0410 ca         1 J7J      -0.077000
     11 C21          7.4990    -0.4940    -0.0060 ca         1 J7J      -0.092300
     12 C22          8.4140     0.5700     0.1150 ca         1 J7J      -0.071000
     13 C23          7.9510     1.8870     0.2830 ca         1 J7J      -0.119000
     14 C24          6.5710     2.1480     0.3300 ca         1 J7J      -0.076000
     15 C26          7.9990    -1.9220    -0.1840 c3         1 J7J       0.209900
     16 N4          -8.0080    -1.1100    -0.1690 nb         1 J7J      -0.651000
     17 C5          -7.4060     0.0710    -0.4110 ca         1 J7J       0.446000
     18 C6          -5.7920    -2.0710     0.2870 ca         1 J7J       0.138000
     19 Cl7         -8.4610     1.4020    -0.8600 cl         1 J7J      -0.159000
     20 N8          -3.7630    -0.6870     0.0920 ns         1 J7J      -0.146000
     21 C9          -2.9530     0.4300     0.2100 c          1 J7J       0.660100
     22 O10         -3.3720     1.5700     0.3570 o          1 J7J      -0.594100
     23 N11          1.1210     2.9180     0.4800 nd         1 J7J      -0.537100
     24 S15         -0.5570     2.7600     0.4770 ss         1 J7J       0.448100
     25 N16         -1.6050     0.1250     0.1600 ns         1 J7J      -0.381100
     26 O27          8.1340    -2.2290    -1.5760 oh         1 J7J      -0.654000
     27 N28         -5.0320    -3.1830     0.6560 nv         1 J7J      -1.056000
     28 H1          -5.6230     1.2430    -0.5680 ha         1 J7J       0.172000
     29 H2          -7.7230    -3.0940     0.3610 h4         1 J7J       0.025100
     30 H3           5.4050    -1.0440    -0.0550 ha         1 J7J       0.119000
     31 H4           9.4850     0.3760     0.0770 ha         1 J7J       0.125000
     32 H5           8.6620     2.7050     0.3760 ha         1 J7J       0.117000
     33 H6           6.2190     3.1690     0.4600 ha         1 J7J       0.125000
     34 H7           8.9650    -2.0340     0.3260 h1         1 J7J       0.026200
     35 H8           7.2930    -2.6150     0.2920 h1         1 J7J       0.026200
     36 H9          -3.2690    -1.5630     0.0020 hn         1 J7J       0.178000
     37 H10         -1.4060    -0.8600     0.0350 hn         1 J7J       0.340500
     38 H11          8.4580    -3.1550    -1.6290 ho         1 J7J       0.444000
     39 H12         -5.5020    -4.0530     0.9140 hn         1 J7J       0.435000
     40 H13         -4.0800    -3.0710     1.0000 hn         1 J7J       0.435000
     41 Br2          1.3290    -1.2160    -0.0350 br         1 J7J      -0.048100
@<TRIPOS>BOND
     1     1     2 ar  
     2     1    17 ar  
     3     1    28 1   
     4     2    18 ar  
     5     2    20 1   
     6     3    16 ar  
     7     3    18 ar  
     8     3    29 1   
     9     4     5 1   
    10     4     7 1   
    11     4    23 2   
    12     5     6 2   
    13     5    41 1   
    14     6    24 1   
    15     6    25 1   
    16     7     8 3   
    17     8     9 1   
    18     9    10 ar  
    19     9    14 ar  
    20    10    11 ar  
    21    10    30 1   
    22    11    12 ar  
    23    11    15 1   
    24    12    13 ar  
    25    12    31 1   
    26    13    14 ar  
    27    13    32 1   
    28    14    33 1   
    29    15    26 1   
    30    15    34 1   
    31    15    35 1   
    32    16    17 ar  
    33    17    19 1   
    34    18    27 1   
    35    20    21 1   
    36    20    36 1   
    37    21    22 2   
    38    21    25 1   
    39    23    24 1   
    40    25    37 1   
    41    26    38 1   
    42    27    39 1   
    43    27    40 1   
@<TRIPOS>SUBSTRUCTURE
     1 J7J         1 TEMP              0 ****  ****    0 ROOT
