@<TRIPOS>MOLECULE
J7M
   43    46     1     0     0
SMALL
No Charge or Current Charge


@<TRIPOS>ATOM
      1 C1          94.3890   -12.7350     9.3920 ca         1 J7M      -0.081200
      2 C2          94.3790   -11.6530     8.5530 ca         1 J7M       0.073400
      3 N3          94.2420   -12.2780    10.6720 na         1 J7M      -0.179600
      4 C4          94.5330   -14.0510     8.9260 ca         1 J7M      -0.114000
      5 N5          94.2260   -10.4620     9.2450 nc         1 J7M      -0.582100
      6 C6          94.5140   -11.8270     7.1670 ca         1 J7M      -0.049000
      7 C7          94.1500   -10.8820    10.5230 cd         1 J7M       0.426800
      8 C8          94.6690   -14.2460     7.5360 ca         1 J7M      -0.096000
      9 C9          94.6600   -13.1370     6.6590 ca         1 J7M      -0.135000
     10 C10         93.9610    -9.9180    11.6610 c3         1 J7M      -0.116700
     11 C11         92.4870    -9.8360    12.1040 c3         1 J7M       0.116000
     12 N12         92.2790    -8.9780    13.2940 n          1 J7M      -0.409800
     13 C13         92.0550    -8.1190    18.1370 ca         1 J7M      -0.131000
     14 C14         91.1240    -7.0800    17.9820 ca         1 J7M      -0.078000
     15 C15         90.5690    -6.8270    16.7180 ca         1 J7M      -0.134000
     16 C16         90.9570    -7.5920    15.6060 ca         1 J7M       0.139100
     17 C17         91.8990    -8.6410    15.7500 ca         1 J7M      -0.182600
     18 C18         92.4310    -8.9020    17.0320 ca         1 J7M      -0.050000
     19 C19         92.3080    -9.5250    14.5930 c          1 J7M       0.583600
     20 O20         92.6050   -10.6990    14.7770 o          1 J7M      -0.550000
     21 O21         90.3250    -7.3560    14.4070 os         1 J7M      -0.357100
     22 C22         94.1830   -13.1220    11.8780 c3         1 J7M       0.065900
     23 C23         91.0410    -6.7830    13.2940 c3         1 J7M       0.151600
     24 C24         92.3860    -7.5120    13.1190 c3         1 J7M       0.068000
     25 H25         94.5390   -14.8970     9.6100 ha         1 J7M       0.116000
     26 H26         94.5050   -10.9690     6.4990 ha         1 J7M       0.128000
     27 H27         94.7820   -15.2520     7.1380 ha         1 J7M       0.111000
     28 H28         94.7650   -13.2920     5.5880 ha         1 J7M       0.113000
     29 H30         94.5780   -10.2250    12.5130 hc         1 J7M       0.060700
     30 H29         94.3120    -8.9220    11.3700 hc         1 J7M       0.060700
     31 H31         91.8850    -9.4400    11.2740 h1         1 J7M       0.076700
     32 H32         92.1100   -10.8460    12.3130 h1         1 J7M       0.076700
     33 H33         92.4800    -8.3250    19.1180 ha         1 J7M       0.120000
     34 H34         90.8250    -6.4810    18.8400 ha         1 J7M       0.117000
     35 H35         89.8300    -6.0390    16.5980 ha         1 J7M       0.128000
     36 H36         93.1470    -9.7090    17.1730 ha         1 J7M       0.130000
     37 H39         93.9560   -12.5130    12.7610 h1         1 J7M       0.051033
     38 H38         93.4000   -13.8810    11.7570 h1         1 J7M       0.051033
     39 H37         95.1490   -13.6200    12.0230 h1         1 J7M       0.051033
     40 H41         90.4480    -6.8880    12.3770 h1         1 J7M       0.058200
     41 H40         91.2280    -5.7150    13.4580 h1         1 J7M       0.058200
     42 H42         93.1080    -7.1180    13.8460 h1         1 J7M       0.057700
     43 H43         92.7790    -7.2810    12.1210 h1         1 J7M       0.057700
@<TRIPOS>BOND
     1     1     2 ar  
     2     1     3 1   
     3     1     4 ar  
     4     2     5 1   
     5     2     6 ar  
     6     3     7 1   
     7     3    22 1   
     8     4     8 ar  
     9     4    25 1   
    10     5     7 2   
    11     6     9 ar  
    12     6    26 1   
    13     7    10 1   
    14     8     9 ar  
    15     8    27 1   
    16     9    28 1   
    17    10    11 1   
    18    10    29 1   
    19    10    30 1   
    20    11    12 1   
    21    11    31 1   
    22    11    32 1   
    23    12    19 1   
    24    12    24 1   
    25    13    14 ar  
    26    13    18 ar  
    27    13    33 1   
    28    14    15 ar  
    29    14    34 1   
    30    15    16 ar  
    31    15    35 1   
    32    16    17 ar  
    33    16    21 1   
    34    17    18 ar  
    35    17    19 1   
    36    18    36 1   
    37    19    20 2   
    38    21    23 1   
    39    22    37 1   
    40    22    38 1   
    41    22    39 1   
    42    23    24 1   
    43    23    40 1   
    44    23    41 1   
    45    24    42 1   
    46    24    43 1   
@<TRIPOS>SUBSTRUCTURE
     1 J7M         1 TEMP              0 ****  ****    0 ROOT
