@<TRIPOS>MOLECULE
J7M
   43    46     1     0     0
SMALL
bcc


@<TRIPOS>ATOM
      1 C1          94.5750   -12.7930     9.4060 ca         1 J7M      -0.081200
      2 C2          93.4920   -12.0910     8.8570 ca         1 J7M       0.073400
      3 N3          94.7300   -12.2850    10.6700 na         1 J7M      -0.150300
      4 C4          95.2610   -13.7810     8.7090 ca         1 J7M      -0.132000
      5 N5          93.0130   -11.1880     9.7740 nc         1 J7M      -0.582100
      6 C6          93.0660   -12.3760     7.5610 ca         1 J7M      -0.067000
      7 C7          93.7670   -11.3320    10.8310 cd         1 J7M       0.426800
      8 C8          94.8230   -14.0500     7.4230 ca         1 J7M      -0.114000
      9 C9          93.7420   -13.3580     6.8570 ca         1 J7M      -0.153000
     10 C10         93.6100   -10.5590    12.0950 c3         1 J7M      -0.116700
     11 C11         92.4010    -9.6280    12.0500 c3         1 J7M       0.116000
     12 N12         92.2480    -8.8780    13.2820 n          1 J7M      -0.476800
     13 C13         91.2610    -8.3660    17.9230 ca         1 J7M      -0.149000
     14 C14         90.8900    -7.0330    17.7990 ca         1 J7M      -0.096000
     15 C15         90.7660    -6.4550    16.5440 ca         1 J7M      -0.152000
     16 C16         91.0110    -7.2110    15.4050 ca         1 J7M       0.139100
     17 C17         91.3860    -8.5530    15.5190 ca         1 J7M      -0.182600
     18 C18         91.4920    -9.1210    16.7860 ca         1 J7M      -0.068000
     19 C19         91.5790    -9.4230    14.3190 c          1 J7M       0.726100
     20 O20         91.1440   -10.5660    14.3050 o          1 J7M      -0.625500
     21 O21         90.8040    -6.6500    14.1860 os         1 J7M      -0.333900
     22 C22         95.7340   -12.7120    11.6140 c3         1 J7M       0.036600
     23 C23         91.9450    -6.4400    13.3610 c3         1 J7M       0.128400
     24 C24         92.9200    -7.6000    13.4210 c3         1 J7M       0.068000
     25 H25         96.0950   -14.3200     9.1410 ha         1 J7M       0.134000
     26 H26         92.2320   -11.8440     7.1210 ha         1 J7M       0.146000
     27 H27         95.3250   -14.8120     6.8410 ha         1 J7M       0.129000
     28 H28         93.4320   -13.6000     5.8480 ha         1 J7M       0.131000
     29 H30         93.5050   -11.2480    12.9370 hc         1 J7M       0.060700
     30 H29         94.5190    -9.9780    12.2850 hc         1 J7M       0.060700
     31 H31         92.5020    -8.9160    11.2310 h1         1 J7M       0.076700
     32 H32         91.4940   -10.2000    11.8620 h1         1 J7M       0.076700
     33 H33         91.3590    -8.8170    18.9010 ha         1 J7M       0.138000
     34 H34         90.6970    -6.4390    18.6830 ha         1 J7M       0.135000
     35 H35         90.4650    -5.4200    16.4410 ha         1 J7M       0.146000
     36 H36         91.7650   -10.1650    16.8780 ha         1 J7M       0.148000
     37 H39         95.6550   -12.1360    12.5310 h1         1 J7M       0.051033
     38 H38         95.6070   -13.7660    11.8570 h1         1 J7M       0.051033
     39 H37         96.7310   -12.5640    11.2020 h1         1 J7M       0.051033
     40 H41         91.5550    -6.3190    12.3500 h1         1 J7M       0.058200
     41 H40         92.4610    -5.5170    13.6440 h1         1 J7M       0.058200
     42 H42         93.5000    -7.5760    14.3450 h1         1 J7M       0.057700
     43 H43         93.6410    -7.4870    12.6100 h1         1 J7M       0.057700
@<TRIPOS>BOND
     1     1     2 ar  
     2     1     3 1   
     3     1     4 ar  
     4     2     5 1   
     5     2     6 ar  
     6     3     7 1   
     7     3    22 1   
     8     4     8 ar  
     9     4    25 1   
    10     5     7 2   
    11     6     9 ar  
    12     6    26 1   
    13     7    10 1   
    14     8     9 ar  
    15     8    27 1   
    16     9    28 1   
    17    10    11 1   
    18    10    29 1   
    19    10    30 1   
    20    11    12 1   
    21    11    31 1   
    22    11    32 1   
    23    12    19 1   
    24    12    24 1   
    25    13    14 ar  
    26    13    18 ar  
    27    13    33 1   
    28    14    15 ar  
    29    14    34 1   
    30    15    16 ar  
    31    15    35 1   
    32    16    17 ar  
    33    16    21 1   
    34    17    18 ar  
    35    17    19 1   
    36    18    36 1   
    37    19    20 2   
    38    21    23 1   
    39    22    37 1   
    40    22    38 1   
    41    22    39 1   
    42    23    24 1   
    43    23    40 1   
    44    23    41 1   
    45    24    42 1   
    46    24    43 1   
@<TRIPOS>SUBSTRUCTURE
     1 J7M         1 TEMP              0 ****  ****    0 ROOT
