@<TRIPOS>MOLECULE
J7O
   70    75     1     0     0
SMALL
No Charge or Current Charge


@<TRIPOS>ATOM
      1 N1          16.0330    22.9140   -16.7230 ns         1 J7O      -0.501900
      2 N3          17.6710    26.2010   -18.4340 nh         1 J7O      -0.844400
      3 C4          18.9250    22.9370   -17.1300 ca         1 J7O       0.004000
      4 C5          20.1970    22.8970   -17.7200 ca         1 J7O      -0.080900
      5 C6          20.6360    23.9590   -18.5210 ca         1 J7O       0.014000
      6 C7          19.7850    25.0580   -18.7390 ca         1 J7O      -0.248200
      7 C8          18.5140    25.1170   -18.1470 ca         1 J7O       0.456000
      8 C10         16.2600    27.6400   -19.6680 c5         1 J7O      -0.084400
      9 C13         12.9520    28.8300   -17.1210 c          1 J7O       0.619700
     10 C15         11.8820    27.4710   -15.3520 ca         1 J7O       0.353900
     11 C17         11.7350    25.2020   -16.9070 ca         1 J7O      -0.053000
     12 C20         12.5470    25.1800   -19.5960 ca         1 J7O      -0.118000
     13 C21         12.6520    26.3630   -18.8430 ca         1 J7O      -0.072000
     14 C22         12.2700    26.3750   -17.4840 ca         1 J7O      -0.012000
     15 C24         16.4320    29.7270   -18.0430 c5         1 J7O      -0.019400
     16 C26         16.8730    30.7290   -20.4200 ca         1 J7O      -0.102500
     17 C28         19.0130    31.7740   -20.9310 ca         1 J7O      -0.102000
     18 C1          14.7220    22.7100   -16.1030 c3         1 J7O       0.089300
     19 C11         16.4440    28.1750   -18.2100 c5         1 J7O      -0.075000
     20 C12         15.2510    27.7500   -17.3020 c5         1 J7O       0.106000
     21 C14         12.3700    27.5280   -16.6660 ca         1 J7O      -0.166600
     22 C16         11.3040    25.2390   -15.5650 ca         1 J7O       0.368900
     23 C18         11.6280    24.0200   -17.6680 ca         1 J7O      -0.186000
     24 C19         12.0430    24.0100   -19.0080 ca         1 J7O       0.134100
     25 C2          16.7480    24.0870   -16.6520 c          1 J7O       0.613700
     26 C23         14.9080    30.0500   -18.1790 c5         1 J7O       0.104000
     27 C25         17.3010    30.4420   -19.1000 ca         1 J7O      -0.081300
     28 C27         17.7230    31.3870   -21.3260 ca         1 J7O      -0.106000
     29 C29         19.4520    31.4990   -19.6280 ca         1 J7O      -0.106000
     30 C3          18.0810    24.0520   -17.3300 ca         1 J7O      -0.225600
     31 C30         18.6020    30.8400   -18.7240 ca         1 J7O      -0.102500
     32 C31         17.7610    27.5120   -17.7330 c5         1 J7O       0.228800
     33 C9          16.6140    26.1410   -19.4810 c5         1 J7O       0.227800
     34 N4          14.2770    28.8330   -17.5980 n          1 J7O      -0.414800
     35 N5          11.3630    26.3520   -14.7970 nb         1 J7O      -0.657000
     36 O1          16.3500    25.0360   -15.9920 o          1 J7O      -0.584100
     37 O2          21.2150    26.7970   -19.2320 o          1 J7O      -0.392500
     38 O3          19.8220    26.1450   -20.7780 o          1 J7O      -0.392500
     39 O4          12.2770    29.8510   -17.1170 o          1 J7O      -0.588100
     40 O5          11.9420    22.8710   -19.7490 oh         1 J7O      -0.535100
     41 Br1         21.3390    21.3910   -17.4240 br         1 J7O      -0.066100
     42 H1          16.4300    22.1680   -17.2820 hn         1 J7O       0.321500
     43 H2          18.6110    22.1120   -16.4940 ha         1 J7O       0.139000
     44 H3          21.6220    23.9230   -18.9810 ha         1 J7O       0.157000
     45 H4          16.9770    28.0870   -20.3640 hc         1 J7O       0.067200
     46 H5          15.2590    27.7910   -20.0830 hc         1 J7O       0.067200
     47 H7          12.8520    25.1730   -20.6390 ha         1 J7O       0.128000
     48 H8          13.0260    27.2590   -19.3280 ha         1 J7O       0.126000
     49 H9          16.7560    29.9910   -17.0290 hc         1 J7O       0.063700
     50 H10         15.8920    30.4280   -20.7730 ha         1 J7O       0.111500
     51 H11         19.6700    32.2830   -21.6340 ha         1 J7O       0.116000
     52 H12         14.2660    21.7930   -16.4980 h1         1 J7O       0.044700
     53 H13         14.8390    22.6200   -15.0160 h1         1 J7O       0.044700
     54 H14         14.0700    23.5630   -16.3290 h1         1 J7O       0.044700
     55 H15         14.8760    26.7470   -17.5280 h1         1 J7O       0.067700
     56 H16         15.5260    27.7710   -16.2390 h1         1 J7O       0.067700
     57 H17         10.8850    24.3520   -15.0910 h4         1 J7O       0.020100
     58 H18         11.2200    23.1190   -17.2140 ha         1 J7O       0.119000
     59 H19         14.6420    30.9620   -17.6280 h1         1 J7O       0.061200
     60 H20         14.5670    30.1690   -19.2130 h1         1 J7O       0.061200
     61 H21         17.3820    31.5940   -22.3380 ha         1 J7O       0.116000
     62 H22         20.4510    31.7960   -19.3180 ha         1 J7O       0.116000
     63 H23         18.9620    30.6370   -17.7170 ha         1 J7O       0.111500
     64 H24         18.6410    28.0770   -18.0700 h1         1 J7O       0.066700
     65 H25         17.8090    27.4120   -16.6400 h1         1 J7O       0.066700
     66 H26         15.7490    25.5550   -19.1410 h1         1 J7O       0.051700
     67 H27         16.9790    25.6970   -20.4180 h1         1 J7O       0.051700
     68 H28         11.5490    22.1680   -19.1890 ho         1 J7O       0.468000
     69 N2          20.2320    26.1500   -19.6110 no         1 J7O       0.694200
     70 H6          11.9300    28.3460   -14.7050 h4         1 J7O       0.028100
@<TRIPOS>BOND
     1     1    18 1   
     2     1    25 1   
     3     1    42 1   
     4     2     7 1   
     5     2    32 1   
     6     2    33 1   
     7     3     4 ar  
     8     3    30 ar  
     9     3    43 1   
    10     4     5 ar  
    11     4    41 1   
    12     5     6 ar  
    13     5    44 1   
    14     6     7 ar  
    15     6    69 1   
    16     7    30 ar  
    17     8    19 1   
    18     8    33 1   
    19     8    45 1   
    20     8    46 1   
    21     9    21 1   
    22     9    34 1   
    23     9    39 2   
    24    10    21 ar  
    25    10    35 ar  
    26    10    70 1   
    27    11    14 ar  
    28    11    22 ar  
    29    11    23 ar  
    30    12    13 ar  
    31    12    24 ar  
    32    12    47 1   
    33    13    14 ar  
    34    13    48 1   
    35    14    21 ar  
    36    15    19 1   
    37    15    26 1   
    38    15    27 1   
    39    15    49 1   
    40    16    27 ar  
    41    16    28 ar  
    42    16    50 1   
    43    17    28 ar  
    44    17    29 ar  
    45    17    51 1   
    46    18    52 1   
    47    18    53 1   
    48    18    54 1   
    49    19    20 1   
    50    19    32 1   
    51    20    34 1   
    52    20    55 1   
    53    20    56 1   
    54    22    35 ar  
    55    22    57 1   
    56    23    24 ar  
    57    23    58 1   
    58    24    40 1   
    59    25    30 1   
    60    25    36 2   
    61    26    34 1   
    62    26    59 1   
    63    26    60 1   
    64    27    31 ar  
    65    28    61 1   
    66    29    31 ar  
    67    29    62 1   
    68    31    63 1   
    69    32    64 1   
    70    32    65 1   
    71    33    66 1   
    72    33    67 1   
    73    37    69 1   
    74    38    69 1   
    75    40    68 1   
@<TRIPOS>SUBSTRUCTURE
     1 J7O         1 TEMP              0 ****  ****    0 ROOT
