@<TRIPOS>MOLECULE
J7O
   70    75     1     0     0
SMALL
bcc


@<TRIPOS>ATOM
      1 N1          16.0750    22.7180   -18.4830 ns         1 J7O      -0.568900
      2 N3          17.7290    26.1820   -18.3520 nh         1 J7O      -0.706000
      3 C4          18.7150    22.8720   -17.0290 ca         1 J7O      -0.014000
      4 C5          20.0570    23.0800   -16.7360 ca         1 J7O      -0.080900
      5 C6          20.6360    24.2990   -17.0110 ca         1 J7O      -0.004000
      6 C7          19.8670    25.2830   -17.6160 ca         1 J7O      -0.248200
      7 C8          18.4900    25.1530   -17.8720 ca         1 J7O       0.317600
      8 C10         16.2390    27.4760   -19.6170 c5         1 J7O      -0.084400
      9 C13         13.1830    28.8760   -17.0640 c          1 J7O       0.686700
     10 C15         12.6250    27.6530   -14.9840 ca         1 J7O       0.419200
     11 C17         11.8920    25.3720   -16.2980 ca         1 J7O      -0.118300
     12 C20         12.0380    25.1710   -19.0640 ca         1 J7O      -0.136000
     13 C21         12.4220    26.3340   -18.4620 ca         1 J7O      -0.090000
     14 C22         12.3580    26.4700   -17.0550 ca         1 J7O      -0.012000
     15 C24         16.4960    29.7130   -18.2940 c5         1 J7O      -0.019400
     16 C26         16.6980    30.5310   -20.6950 ca         1 J7O      -0.120500
     17 C28         18.7040    31.6180   -21.4660 ca         1 J7O      -0.120000
     18 C1          14.6930    22.3440   -18.6750 c3         1 J7O       0.089300
     19 C11         16.5280    28.1710   -18.2850 c5         1 J7O      -0.075000
     20 C12         15.4520    27.8580   -17.2430 c5         1 J7O       0.106000
     21 C14         12.7350    27.6380   -16.3490 ca         1 J7O      -0.231900
     22 C16         11.8370    25.5180   -14.8910 ca         1 J7O       0.434200
     23 C18         11.4970    24.1770   -16.9340 ca         1 J7O      -0.204000
     24 C19         11.5660    24.0760   -18.3000 ca         1 J7O       0.134100
     25 C2          16.4580    23.6380   -17.5940 c          1 J7O       0.680700
     26 C23         15.0050    30.0380   -18.1850 c5         1 J7O       0.104000
     27 C25         17.2340    30.3930   -19.4140 ca         1 J7O      -0.081300
     28 C27         17.4250    31.1370   -21.7100 ca         1 J7O      -0.124000
     29 C29         19.2500    31.4890   -20.1960 ca         1 J7O      -0.124000
     30 C3          17.9390    23.8920   -17.5530 ca         1 J7O      -0.225600
     31 C30         18.5190    30.8840   -19.1830 ca         1 J7O      -0.120500
     32 C31         17.8790    27.5680   -17.9380 c5         1 J7O       0.228800
     33 C9          16.6850    26.0380   -19.3660 c5         1 J7O       0.227800
     34 N4          14.4510    28.8850   -17.4900 n          1 J7O      -0.481800
     35 N5          12.1850    26.6040   -14.2580 nb         1 J7O      -0.657000
     36 O1          15.6980    24.2100   -16.8260 o          1 J7O      -0.584100
     37 O2          21.4020    26.9480   -17.3190 o          1 J7O      -0.202500
     38 O3          20.4580    26.7800   -19.2310 o          1 J7O      -0.202500
     39 O4          12.4160    29.8130   -17.2340 o          1 J7O      -0.588100
     40 O5          11.2210    22.9760   -18.9890 oh         1 J7O      -0.496100
     41 BR1         21.0830    21.7020   -15.9700 br         1 J7O      -0.066100
     42 H1          16.7610    22.3460   -19.1190 hn         1 J7O       0.321500
     43 H2          18.2500    21.9220   -16.7980 ha         1 J7O       0.157000
     44 H3          21.6860    24.4740   -16.8180 ha         1 J7O       0.175000
     45 H4          16.8420    27.9220   -20.4090 hc         1 J7O       0.067200
     46 H5          15.1930    27.5280   -19.9250 hc         1 J7O       0.067200
     47 H7          12.0920    25.0740   -20.1420 ha         1 J7O       0.146000
     48 H8          12.7760    27.1520   -19.0760 ha         1 J7O       0.144000
     49 H9          16.9680    30.0280   -17.3560 hc         1 J7O       0.063700
     50 H10         15.7040    30.1620   -20.9140 ha         1 J7O       0.129500
     51 H11         19.2700    32.0920   -22.2580 ha         1 J7O       0.134000
     52 H12         14.6570    21.4690   -19.3160 h1         1 J7O       0.044700
     53 H13         14.2170    22.0980   -17.7270 h1         1 J7O       0.044700
     54 H14         14.1270    23.1460   -19.1500 h1         1 J7O       0.044700
     55 H15         15.0420    26.8540   -17.3450 h1         1 J7O       0.067700
     56 H16         15.8600    27.9470   -16.2310 h1         1 J7O       0.067700
     57 H17         11.4850    24.6840   -14.2910 h4         1 J7O       0.020100
     58 H18         11.1410    23.3480   -16.3310 ha         1 J7O       0.137000
     59 H19         14.8380    30.9600   -17.6260 h1         1 J7O       0.061200
     60 H20         14.5240    30.1560   -19.1590 h1         1 J7O       0.061200
     61 H21         16.9880    31.2330   -22.6960 ha         1 J7O       0.134000
     62 H22         20.2450    31.8630   -19.9910 ha         1 J7O       0.134000
     63 H23         18.9500    30.7930   -18.1930 ha         1 J7O       0.129500
     64 H24         18.6510    28.1090   -18.4960 h1         1 J7O       0.066700
     65 H25         18.1140    27.6360   -16.8730 h1         1 J7O       0.066700
     66 H26         15.8350    25.4490   -19.0220 h1         1 J7O       0.051700
     67 H27         17.0760    25.5610   -20.2670 h1         1 J7O       0.051700
     68 H28         10.9280    22.2780   -18.3910 ho         1 J7O       0.429000
     69 N2          20.6200    26.4360   -18.0840 no         1 J7O       0.314200
     70 H6          12.9050    28.5360   -14.4200 h4         1 J7O       0.028100
@<TRIPOS>BOND
     1     1    18 1   
     2     1    25 1   
     3     1    42 1   
     4     2     7 1   
     5     2    32 1   
     6     2    33 1   
     7     3     4 ar  
     8     3    30 ar  
     9     3    43 1   
    10     4     5 ar  
    11     4    41 1   
    12     5     6 ar  
    13     5    44 1   
    14     6     7 ar  
    15     6    69 1   
    16     7    30 ar  
    17     8    19 1   
    18     8    33 1   
    19     8    45 1   
    20     8    46 1   
    21     9    21 1   
    22     9    34 1   
    23     9    39 2   
    24    10    21 ar  
    25    10    35 ar  
    26    10    70 1   
    27    11    14 ar  
    28    11    22 ar  
    29    11    23 ar  
    30    12    13 ar  
    31    12    24 ar  
    32    12    47 1   
    33    13    14 ar  
    34    13    48 1   
    35    14    21 ar  
    36    15    19 1   
    37    15    26 1   
    38    15    27 1   
    39    15    49 1   
    40    16    27 ar  
    41    16    28 ar  
    42    16    50 1   
    43    17    28 ar  
    44    17    29 ar  
    45    17    51 1   
    46    18    52 1   
    47    18    53 1   
    48    18    54 1   
    49    19    20 1   
    50    19    32 1   
    51    20    34 1   
    52    20    55 1   
    53    20    56 1   
    54    22    35 ar  
    55    22    57 1   
    56    23    24 ar  
    57    23    58 1   
    58    24    40 1   
    59    25    30 1   
    60    25    36 2   
    61    26    34 1   
    62    26    59 1   
    63    26    60 1   
    64    27    31 ar  
    65    28    61 1   
    66    29    31 ar  
    67    29    62 1   
    68    31    63 1   
    69    32    64 1   
    70    32    65 1   
    71    33    66 1   
    72    33    67 1   
    73    37    69 1   
    74    38    69 1   
    75    40    68 1   
@<TRIPOS>SUBSTRUCTURE
     1 J7O         1 TEMP              0 ****  ****    0 ROOT
