@<TRIPOS>MOLECULE
J7R
   58    61     1     0     0
SMALL
abcg2


@<TRIPOS>ATOM
      1 N1         -28.1020   -25.1110    31.3000 ns         1 J7R      -0.498900
      2 N3         -24.7790   -27.1000    30.9530 nu         1 J7R      -0.923200
      3 C4         -26.4440   -25.4310    33.7920 ca         1 J7R       0.014000
      4 C5         -25.7000   -25.9050    34.8730 ca         1 J7R      -0.080900
      5 C6         -24.6160   -26.7160    34.6630 ca         1 J7R       0.030000
      6 C7         -24.2850   -27.0990    33.3590 ca         1 J7R      -0.267200
      7 C8         -25.0370   -26.6820    32.2280 ca         1 J7R       0.431000
      8 C10        -25.9760   -29.2090    30.3240 c6         1 J7R      -0.101400
      9 C13        -24.1730   -28.0030    28.2060 c6         1 J7R      -0.090400
     10 C17        -25.1960   -23.2840    27.2660 ca         1 J7R       0.365900
     11 C20        -28.7230   -21.3610    26.2350 ca         1 J7R      -0.081000
     12 C21        -29.8780   -22.0650    26.0170 ca         1 J7R      -0.115000
     13 C22        -29.8800   -23.4720    26.1300 ca         1 J7R      -0.094000
     14 C24        -27.5260   -23.4610    26.6740 ca         1 J7R       0.022000
     15 C1         -28.8630   -24.3980    30.2850 c3         1 J7R       0.090300
     16 C11        -25.2230   -30.0530    29.2820 c6         1 J7R      -0.077400
     17 C12        -23.9170   -29.3860    28.8450 c6         1 J7R      -0.080400
     18 C14        -25.5360   -27.4210    28.6200 c6         1 J7R       0.115700
     19 C16        -26.2950   -24.0760    27.0400 ca         1 J7R      -0.176600
     20 C18        -26.3220   -21.3470    26.8200 ca         1 J7R       0.374900
     21 C19        -27.5290   -22.0420    26.5700 ca         1 J7R      -0.108000
     22 C2         -26.7720   -25.0280    31.3830 c          1 J7R       0.613700
     23 C23        -28.7350   -24.1600    26.4470 ca         1 J7R      -0.104000
     24 C3         -26.1110   -25.7880    32.5000 ca         1 J7R      -0.224600
     25 C9         -25.8340   -27.6810    30.0960 c6         1 J7R       0.205500
     26 N4         -25.6540   -26.0080    28.3060 ns         1 J7R      -0.501900
     27 N5         -25.1940   -21.9310    27.1530 nb         1 J7R      -0.661000
     28 O1         -26.0930   -24.3240    30.6280 o          1 J7R      -0.602100
     29 O2         -22.7820   -28.6080    34.2350 o          1 J7R      -0.403500
     30 O3         -22.5990   -28.1120    32.1430 o          1 J7R      -0.403500
     31 O4         -26.5290   -26.3110    26.2310 o          1 J7R      -0.614100
     32 BR1        -26.1720   -25.3760    36.6440 br         1 J7R      -0.071100
     33 H1         -28.5890   -25.7460    31.9130 hn         1 J7R       0.320500
     34 H2         -23.9000   -27.5950    30.8910 hn         1 J7R       0.508000
     35 H3         -27.2570   -24.7370    33.9570 ha         1 J7R       0.140000
     36 H4         -24.0090   -27.0720    35.4800 ha         1 J7R       0.166000
     37 H5         -27.0360   -29.4650    30.3060 hc         1 J7R       0.049700
     38 H6         -25.6130   -29.4380    31.3280 hc         1 J7R       0.049700
     39 H7         -24.1580   -28.0740    27.1170 hc         1 J7R       0.060200
     40 H8         -23.3880   -27.2990    28.4880 hc         1 J7R       0.060200
     41 H10        -28.7040   -20.2800    26.1590 ha         1 J7R       0.118000
     42 H11        -30.7940   -21.5470    25.7630 ha         1 J7R       0.117000
     43 H12        -30.8010   -24.0160    25.9610 ha         1 J7R       0.115000
     44 H13        -29.9210   -24.5110    30.5060 h1         1 J7R       0.050033
     45 H14        -28.6020   -23.3400    30.2910 h1         1 J7R       0.050033
     46 H15        -28.6570   -24.7990    29.2920 h1         1 J7R       0.050033
     47 H16        -25.8570   -30.2040    28.4040 hc         1 J7R       0.049200
     48 H17        -25.0230   -31.0440    29.6930 hc         1 J7R       0.049200
     49 H18        -23.3830   -30.0270    28.1420 hc         1 J7R       0.051200
     50 H19        -23.2640   -29.2830    29.7160 hc         1 J7R       0.051200
     51 H20        -26.3160   -27.9290    28.0530 h1         1 J7R       0.077700
     52 H21        -26.3160   -20.2640    26.7380 h4         1 J7R       0.020100
     53 H22        -28.7480   -25.2370    26.5240 ha         1 J7R       0.134000
     54 H23        -26.7730   -27.2020    30.3530 h1         1 J7R       0.060700
     55 H24        -25.5130   -25.3400    29.0580 hn         1 J7R       0.355500
     56 N2         -23.1570   -27.9950    33.2400 no         1 J7R       0.680200
     57 C15        -26.1760   -25.5670    27.1510 c          1 J7R       0.609700
     58 H9         -24.2500   -23.7360    27.5410 h4         1 J7R       0.029100
@<TRIPOS>BOND
     1     1    15 1   
     2     1    22 1   
     3     1    33 1   
     4     2     7 1   
     5     2    25 1   
     6     2    34 1   
     7     3     4 ar  
     8     3    24 ar  
     9     3    35 1   
    10     4     5 ar  
    11     4    32 1   
    12     5     6 ar  
    13     5    36 1   
    14     6     7 ar  
    15     6    56 1   
    16     7    24 ar  
    17     8    16 1   
    18     8    25 1   
    19     8    37 1   
    20     8    38 1   
    21     9    17 1   
    22     9    18 1   
    23     9    39 1   
    24     9    40 1   
    25    10    19 ar  
    26    10    27 ar  
    27    10    58 1   
    28    11    12 ar  
    29    11    21 ar  
    30    11    41 1   
    31    12    13 ar  
    32    12    42 1   
    33    13    23 ar  
    34    13    43 1   
    35    14    19 ar  
    36    14    21 ar  
    37    14    23 ar  
    38    15    44 1   
    39    15    45 1   
    40    15    46 1   
    41    16    17 1   
    42    16    47 1   
    43    16    48 1   
    44    17    49 1   
    45    17    50 1   
    46    18    25 1   
    47    18    26 1   
    48    18    51 1   
    49    19    57 1   
    50    20    21 ar  
    51    20    27 ar  
    52    20    52 1   
    53    22    24 1   
    54    22    28 2   
    55    23    53 1   
    56    25    54 1   
    57    26    55 1   
    58    26    57 1   
    59    29    56 1   
    60    30    56 1   
    61    31    57 2   
@<TRIPOS>SUBSTRUCTURE
     1 J7R         1 TEMP              0 ****  ****    0 ROOT
