@<TRIPOS>MOLECULE
J7R
   58    61     1     0     0
SMALL
No Charge or Current Charge


@<TRIPOS>ATOM
      1 N1         -28.2300   -24.8860    32.0140 ns         1 J7R      -0.498900
      2 N3         -24.8640   -26.9630    30.9080 nu         1 J7R      -0.923200
      3 C4         -26.2330   -25.4700    34.0280 ca         1 J7R       0.014000
      4 C5         -25.3940   -26.0560    34.9830 ca         1 J7R      -0.080900
      5 C6         -24.3430   -26.8890    34.5820 ca         1 J7R       0.030000
      6 C7         -24.1360   -27.1550    33.2120 ca         1 J7R      -0.267200
      7 C8         -25.0000   -26.5950    32.2450 ca         1 J7R       0.431000
      8 C10        -25.6940   -29.3040    30.5690 c6         1 J7R      -0.101400
      9 C13        -24.4360   -28.0480    28.0790 c6         1 J7R      -0.090400
     10 C17        -25.6140   -23.3620    27.8090 ca         1 J7R       0.365900
     11 C20        -28.4470   -21.2620    25.6150 ca         1 J7R      -0.081000
     12 C21        -29.4650   -21.9150    24.9050 ca         1 J7R      -0.115000
     13 C22        -29.5440   -23.3160    24.9260 ca         1 J7R      -0.094000
     14 C24        -27.5560   -23.4250    26.3540 ca         1 J7R       0.022000
     15 C1         -29.2370   -24.1960    31.2030 c3         1 J7R       0.090300
     16 C11        -25.0190   -30.1460    29.4500 c6         1 J7R      -0.077400
     17 C12        -23.8990   -29.3500    28.7420 c6         1 J7R      -0.080400
     18 C14        -25.7980   -27.5590    28.6630 c6         1 J7R       0.115700
     19 C16        -26.5720   -24.1210    27.1080 ca         1 J7R      -0.176600
     20 C18        -26.4910   -21.3560    27.0680 ca         1 J7R       0.374900
     21 C19        -27.5010   -22.0120    26.3410 ca         1 J7R      -0.108000
     22 C2         -26.9080   -25.0160    31.6570 c          1 J7R       0.613700
     23 C23        -28.6000   -24.0680    25.6480 ca         1 J7R      -0.104000
     24 C3         -26.0380   -25.7250    32.6520 ca         1 J7R      -0.224600
     25 C9         -25.8680   -27.7960    30.2060 c6         1 J7R       0.205500
     26 N4         -26.0140   -26.1390    28.3590 ns         1 J7R      -0.501900
     27 N5         -25.5610   -22.0120    27.7920 nb         1 J7R      -0.661000
     28 O1         -26.4800   -24.5060    30.6330 o          1 J7R      -0.602100
     29 O2         -22.7190   -28.9630    33.6070 o          1 J7R      -0.403500
     30 O3         -22.3440   -27.7530    31.8320 o          1 J7R      -0.403500
     31 O4         -26.6880   -26.3460    26.2130 o          1 J7R      -0.614100
     32 Br1        -25.6630   -25.6900    36.8410 br         1 J7R      -0.071100
     33 H1         -28.5220   -25.3370    32.8730 hn         1 J7R       0.320500
     34 H2         -23.8940   -27.1820    30.6750 hn         1 J7R       0.508000
     35 H3         -27.0140   -24.7910    34.3640 ha         1 J7R       0.140000
     36 H4         -23.6900   -27.3210    35.3390 ha         1 J7R       0.166000
     37 H5         -26.6830   -29.7350    30.7750 hc         1 J7R       0.049700
     38 H6         -25.1330   -29.4140    31.5060 hc         1 J7R       0.049700
     39 H7         -24.5540   -28.2080    26.9980 hc         1 J7R       0.060200
     40 H8         -23.6760   -27.2600    28.1820 hc         1 J7R       0.060200
     41 H10        -28.3970   -20.1750    25.6040 ha         1 J7R       0.118000
     42 H11        -30.1980   -21.3360    24.3460 ha         1 J7R       0.117000
     43 H12        -30.3410   -23.8220    24.3850 ha         1 J7R       0.115000
     44 H13        -30.2150   -24.2600    31.6970 h1         1 J7R       0.050033
     45 H14        -28.9580   -23.1410    31.0870 h1         1 J7R       0.050033
     46 H15        -29.2990   -24.6660    30.2130 h1         1 J7R       0.050033
     47 H16        -25.7720   -30.4530    28.7090 hc         1 J7R       0.049200
     48 H17        -24.6130   -31.0730    29.8760 hc         1 J7R       0.049200
     49 H18        -23.4110   -29.9790    27.9850 hc         1 J7R       0.051200
     50 H19        -23.1200   -29.0990    29.4730 hc         1 J7R       0.051200
     51 H20        -26.6110   -28.1380    28.1990 h1         1 J7R       0.077700
     52 H21        -26.4250   -20.2680    27.0740 h4         1 J7R       0.020100
     53 H22        -28.7110   -25.1470    25.6540 ha         1 J7R       0.134000
     54 H23        -26.8750   -27.4920    30.5320 h1         1 J7R       0.060700
     55 H24        -25.9100   -25.4890    29.1380 hn         1 J7R       0.355500
     56 N2         -23.0140   -28.0470    32.8310 no         1 J7R       0.680200
     57 C15        -26.4640   -25.6190    27.1700 c          1 J7R       0.609700
     58 H9         -24.8270   -23.8470    28.3860 h4         1 J7R       0.029100
@<TRIPOS>BOND
     1     1    15 1   
     2     1    22 1   
     3     1    33 1   
     4     2     7 1   
     5     2    25 1   
     6     2    34 1   
     7     3     4 ar  
     8     3    24 ar  
     9     3    35 1   
    10     4     5 ar  
    11     4    32 1   
    12     5     6 ar  
    13     5    36 1   
    14     6     7 ar  
    15     6    56 1   
    16     7    24 ar  
    17     8    16 1   
    18     8    25 1   
    19     8    37 1   
    20     8    38 1   
    21     9    17 1   
    22     9    18 1   
    23     9    39 1   
    24     9    40 1   
    25    10    19 ar  
    26    10    27 ar  
    27    10    58 1   
    28    11    12 ar  
    29    11    21 ar  
    30    11    41 1   
    31    12    13 ar  
    32    12    42 1   
    33    13    23 ar  
    34    13    43 1   
    35    14    19 ar  
    36    14    21 ar  
    37    14    23 ar  
    38    15    44 1   
    39    15    45 1   
    40    15    46 1   
    41    16    17 1   
    42    16    47 1   
    43    16    48 1   
    44    17    49 1   
    45    17    50 1   
    46    18    25 1   
    47    18    26 1   
    48    18    51 1   
    49    19    57 1   
    50    20    21 ar  
    51    20    27 ar  
    52    20    52 1   
    53    22    24 1   
    54    22    28 2   
    55    23    53 1   
    56    25    54 1   
    57    26    55 1   
    58    26    57 1   
    59    29    56 1   
    60    30    56 1   
    61    31    57 2   
@<TRIPOS>SUBSTRUCTURE
     1 J7R         1 TEMP              0 ****  ****    0 ROOT
