@<TRIPOS>MOLECULE
J7S
   36    39     1     0     0
SMALL
abcg2


@<TRIPOS>ATOM
      1 O1          -1.4790     2.9830    -3.2620 o          1 J7S      -0.517000
      2 N           -0.0820     0.5260    -1.1710 nh         1 J7S      -0.792100
      3 C           -4.8140    -2.2650     2.1240 c3         1 J7S       0.146900
      4 C1          -3.5690    -0.7950     0.7400 ca         1 J7S       0.170100
      5 C10          1.0650     0.7960     3.0550 ca         1 J7S      -0.192000
      6 C11          2.4110     0.4720     3.2810 ca         1 J7S       0.125900
      7 C12         -0.3470     1.0080    -2.5140 c6         1 J7S       0.143800
      8 C13         -2.4040     0.7510    -0.6870 ca         1 J7S       0.002000
      9 C14         -1.4370     2.0630    -2.4730 c          1 J7S       0.555000
     10 C15         -3.5700     0.3450    -0.0640 ca         1 J7S      -0.184000
     11 C2          -2.4010    -1.5460     0.8770 ca         1 J7S      -0.209000
     12 C3          -1.2440    -1.1380     0.2320 ca         1 J7S      -0.057000
     13 C4          -1.2220     0.0300    -0.5100 ca         1 J7S       0.189000
     14 C5           1.1810     0.4700    -0.6840 ca         1 J7S       0.435900
     15 C6           3.3920     0.2930    -1.1130 ca         1 J7S       0.274000
     16 C7           2.8480     0.2920     1.0550 ca         1 J7S       0.101000
     17 C8           1.4910     0.5000     0.7210 ca         1 J7S      -0.220000
     18 C9           0.6020     0.8060     1.7670 ca         1 J7S      -0.016000
     19 N1           2.1560     0.4200    -1.5720 nb         1 J7S      -0.269000
     20 N2           3.8070     0.1720     0.1030 nb         1 J7S      -0.162000
     21 N3           3.2780     0.2440     2.3250 nb         1 J7S      -0.119000
     22 N4          -2.3710     1.8740    -1.5060 ns         1 J7S      -0.144000
     23 CL           4.6090     0.2520    -2.3460 cl         1 J7S      -0.122000
     24 H1          -5.8360    -2.3210     2.4900 h1         1 J7S       0.045700
     25 H2          -4.5940    -3.1700     1.5520 h1         1 J7S       0.045700
     26 H3          -4.1370    -2.2130     2.9810 h1         1 J7S       0.045700
     27 H4           0.4160     1.0280     3.8870 ha         1 J7S       0.131000
     28 H5           2.7850     0.4180     4.2970 h4         1 J7S       0.027100
     29 H6           0.5500     1.4470    -2.9390 h1         1 J7S       0.100200
     30 H7          -0.6650     0.1910    -3.1710 h1         1 J7S       0.100200
     31 H8          -4.4870     0.9070    -0.2010 ha         1 J7S       0.139000
     32 H9          -2.3720    -2.4500     1.4680 ha         1 J7S       0.128000
     33 H10         -0.3460    -1.7330     0.3330 ha         1 J7S       0.131000
     34 H11         -0.4290     1.0620     1.5730 ha         1 J7S       0.134000
     35 H12         -3.1620     2.5040    -1.4920 hn         1 J7S       0.165000
     36 O           -4.7390    -1.1020     1.3220 os         1 J7S      -0.336100
@<TRIPOS>BOND
     1     1     9 2   
     2     2     7 1   
     3     2    13 1   
     4     2    14 1   
     5     3    24 1   
     6     3    25 1   
     7     3    26 1   
     8     3    36 1   
     9     4    10 ar  
    10     4    11 ar  
    11     4    36 1   
    12     5     6 ar  
    13     5    18 ar  
    14     5    27 1   
    15     6    21 ar  
    16     6    28 1   
    17     7     9 1   
    18     7    29 1   
    19     7    30 1   
    20     8    10 ar  
    21     8    13 ar  
    22     8    22 1   
    23     9    22 1   
    24    10    31 1   
    25    11    12 ar  
    26    11    32 1   
    27    12    13 ar  
    28    12    33 1   
    29    14    17 ar  
    30    14    19 ar  
    31    15    19 ar  
    32    15    20 ar  
    33    15    23 1   
    34    16    17 ar  
    35    16    20 ar  
    36    16    21 ar  
    37    17    18 ar  
    38    18    34 1   
    39    22    35 1   
@<TRIPOS>SUBSTRUCTURE
     1 J7S         1 TEMP              0 ****  ****    0 ROOT
