@<TRIPOS>MOLECULE
J7S
   36    39     1     0     0
SMALL
No Charge or Current Charge


@<TRIPOS>ATOM
      1 O1          -1.7730     3.3350    -3.0800 o          1 J7S      -0.517000
      2 N           -0.1100     0.6840    -1.0160 nh         1 J7S      -0.792100
      3 C           -4.9330    -2.6050     1.9900 c3         1 J7S       0.146900
      4 C1          -3.6920    -0.9920     0.5940 ca         1 J7S       0.170100
      5 C10          1.4410     1.3520     2.9800 ca         1 J7S      -0.192000
      6 C11          2.7380     0.8790     3.2220 ca         1 J7S       0.125900
      7 C12         -0.2210     1.7000    -2.1320 c6         1 J7S       0.143800
      8 C13         -2.5700     0.6490    -0.8170 ca         1 J7S       0.002000
      9 C14         -1.6100     2.3530    -2.3620 c          1 J7S       0.555000
     10 C15         -3.7490     0.1020    -0.2800 ca         1 J7S      -0.184000
     11 C2          -2.4400    -1.5460     0.9300 ca         1 J7S      -0.209000
     12 C3          -1.2590    -0.9980     0.3960 ca         1 J7S      -0.057000
     13 C4          -1.3030     0.1120    -0.4770 ca         1 J7S       0.189000
     14 C5           1.1850     0.3130    -0.5950 ca         1 J7S       0.435900
     15 C6           3.1760    -0.6430    -1.1500 ca         1 J7S       0.274000
     16 C7           2.9840     0.0940     1.0360 ca         1 J7S       0.101000
     17 C8           1.6670     0.5320     0.7180 ca         1 J7S      -0.220000
     18 C9           0.8910     1.1800     1.7040 ca         1 J7S      -0.016000
     19 N1           1.9480    -0.2650    -1.5350 nb         1 J7S      -0.269000
     20 N2           3.7210    -0.4990     0.0730 nb         1 J7S      -0.162000
     21 N3           3.4850     0.2730     2.2790 nb         1 J7S      -0.119000
     22 N4          -2.6550     1.7450    -1.7030 ns         1 J7S      -0.144000
     23 Cl           4.1780    -1.4100    -2.3710 cl         1 J7S      -0.122000
     24 H1          -5.9720    -2.8310     2.2570 h1         1 J7S       0.045700
     25 H2          -4.5000    -3.5010     1.5260 h1         1 J7S       0.045700
     26 H3          -4.3840    -2.3860     2.9150 h1         1 J7S       0.045700
     27 H4           0.8760     1.8430     3.7690 ha         1 J7S       0.131000
     28 H5           3.1980     0.9940     4.2020 h4         1 J7S       0.027100
     29 H6           0.4680     2.5390    -1.9540 h1         1 J7S       0.100200
     30 H7           0.0490     1.2400    -3.0930 h1         1 J7S       0.100200
     31 H8          -4.7160     0.5240    -0.5430 ha         1 J7S       0.139000
     32 H9          -2.3610    -2.3980     1.5990 ha         1 J7S       0.128000
     33 H10         -0.3080    -1.4470     0.6650 ha         1 J7S       0.131000
     34 H11         -0.1100     1.5490     1.4940 ha         1 J7S       0.134000
     35 H12         -3.5750     2.1380    -1.8520 hn         1 J7S       0.165000
     36 O           -4.8820    -1.4860     1.0870 os         1 J7S      -0.336100
@<TRIPOS>BOND
     1     1     9 2   
     2     2     7 1   
     3     2    13 1   
     4     2    14 1   
     5     3    24 1   
     6     3    25 1   
     7     3    26 1   
     8     3    36 1   
     9     4    10 ar  
    10     4    11 ar  
    11     4    36 1   
    12     5     6 ar  
    13     5    18 ar  
    14     5    27 1   
    15     6    21 ar  
    16     6    28 1   
    17     7     9 1   
    18     7    29 1   
    19     7    30 1   
    20     8    10 ar  
    21     8    13 ar  
    22     8    22 1   
    23     9    22 1   
    24    10    31 1   
    25    11    12 ar  
    26    11    32 1   
    27    12    13 ar  
    28    12    33 1   
    29    14    17 ar  
    30    14    19 ar  
    31    15    19 ar  
    32    15    20 ar  
    33    15    23 1   
    34    16    17 ar  
    35    16    20 ar  
    36    16    21 ar  
    37    17    18 ar  
    38    18    34 1   
    39    22    35 1   
@<TRIPOS>SUBSTRUCTURE
     1 J7S         1 TEMP              0 ****  ****    0 ROOT
