@<TRIPOS>MOLECULE
J7W
   69    73     1     0     0
SMALL
No Charge or Current Charge


@<TRIPOS>ATOM
      1 N1         -12.3830   -27.8560     9.7300 nb         1 J7W      -0.272500
      2 N3         -13.8110   -26.0710     9.7420 nv         1 J7W      -1.070400
      3 C4         -10.2360   -26.2530    10.2440 ca         1 J7W       0.400900
      4 C5         -10.9270   -29.8050     9.7030 cc         1 J7W       0.260000
      5 C6         -11.4670   -31.8970     9.3810 cd         1 J7W       0.693300
      6 C7          -9.6630   -30.3480     9.8160 cd         1 J7W      -0.238000
      7 C8         -12.3210   -34.2360     8.9010 ca         1 J7W       0.314000
      8 C10        -11.3490   -36.4150     9.4710 ca         1 J7W      -0.004000
      9 C13        -13.2570   -34.8740     8.0530 ca         1 J7W      -0.125300
     10 C15         -9.3020   -36.9760    10.9260 c          1 J7W       0.618700
     11 C17         -9.0840   -39.5030    11.3610 ca         1 J7W      -0.073000
     12 C20         -6.7750   -39.0800    12.9000 ca         1 J7W      -0.111000
     13 C21         -7.4420   -37.9880    12.3190 ca         1 J7W      -0.073000
     14 C22         -6.5240   -41.5710    13.3510 c3         1 J7W       0.214100
     15 C24         -3.8450   -42.4240    10.6770 c6         1 J7W       0.163800
     16 C26         -4.4340   -42.8920    13.4840 c6         1 J7W       0.167300
     17 C1         -11.1210   -28.3400     9.8550 ca         1 J7W       0.184000
     18 C2         -12.5470   -26.5360     9.8680 ca         1 J7W       0.400900
     19 C3         -11.4920   -25.6720    10.1310 ca         1 J7W      -0.378000
     20 N2         -10.0330   -27.5680    10.1100 nb         1 J7W      -0.272500
     21 N4          -9.1420   -25.5000    10.4970 nv         1 J7W      -1.070400
     22 N5         -11.9550   -30.6850     9.4400 nc         1 J7W      -0.685000
     23 S1          -9.7240   -32.0850     9.5730 ss         1 J7W      -0.052400
     24 N6         -12.3630   -32.8480     9.0460 nu         1 J7W      -0.952900
     25 C9         -11.3880   -35.0120     9.6140 ca         1 J7W      -0.147000
     26 C11        -12.2770   -37.0350     8.6200 ca         1 J7W      -0.175000
     27 C12        -13.2240   -36.2750     7.9180 ca         1 J7W      -0.066000
     28 C14        -14.3010   -34.0770     7.2710 c3         1 J7W      -0.043800
     29 N7         -10.4320   -37.2530    10.1650 ns         1 J7W      -0.146000
     30 C16         -8.6070   -38.1800    11.5400 ca         1 J7W      -0.159600
     31 O1          -8.8710   -35.8410    11.0960 o          1 J7W      -0.569100
     32 C18         -8.4130   -40.5910    11.9460 ca         1 J7W      -0.111000
     33 C19         -7.2550   -40.3880    12.7180 ca         1 J7W      -0.059300
     34 N8          -5.1940   -41.8340    12.7500 n3         1 J7W      -0.729600
     35 C23         -5.2590   -42.1690    11.2920 c6         1 J7W       0.167300
     36 N9          -3.0860   -43.4820    11.4120 n3         1 J7W      -0.717600
     37 C25         -3.0200   -43.1450    12.8670 c6         1 J7W       0.163800
     38 C27         -1.7560   -43.7460    10.8240 c3         1 J7W       0.153100
     39 H1         -14.5740   -26.7430     9.7570 hn         1 J7W       0.483750
     40 H2         -14.0230   -25.1290    10.0620 hn         1 J7W       0.483750
     41 H3          -8.7230   -29.8480    10.0140 h4         1 J7W       0.174000
     42 H4          -9.9750   -39.7100    10.7730 ha         1 J7W       0.124500
     43 H5          -5.8780   -38.9110    13.4910 ha         1 J7W       0.125500
     44 H6          -7.0440   -36.9870    12.4780 ha         1 J7W       0.124500
     45 H7          -7.1550   -42.4670    13.2740 h1         1 J7W       0.042200
     46 H8          -6.4090   -41.3580    14.4230 h1         1 J7W       0.042200
     47 H10         -3.9680   -42.7080     9.6220 h1         1 J7W       0.038450
     48 H11         -4.9950   -43.8380    13.4690 h1         1 J7W       0.039700
     49 H12         -4.3090   -42.6090    14.5390 h1         1 J7W       0.039700
     50 H13        -11.6400   -24.6030    10.2420 ha         1 J7W       0.123000
     51 H14         -8.2250   -25.9220    10.3680 hn         1 J7W       0.483750
     52 H15         -9.2020   -24.4910    10.3830 hn         1 J7W       0.483750
     53 H16        -13.2260   -32.4050     8.7520 hn         1 J7W       0.512000
     54 H17        -10.7210   -34.5180    10.3050 ha         1 J7W       0.157000
     55 H18        -12.2690   -38.1160     8.5010 ha         1 J7W       0.112000
     56 H19        -13.9350   -36.7790     7.2670 ha         1 J7W       0.114000
     57 H20        -14.9940   -33.5620     7.9480 hc         1 J7W       0.044367
     58 H21        -13.8260   -33.3220     6.6320 hc         1 J7W       0.044367
     59 H22        -14.9020   -34.7220     6.6190 hc         1 J7W       0.044367
     60 H23        -10.6490   -38.2370    10.0890 hn         1 J7W       0.154000
     61 H24         -8.7950   -41.5990    11.7940 ha         1 J7W       0.125500
     62 H26         -5.7360   -41.3530    10.7290 h1         1 J7W       0.039700
     63 H27         -5.8750   -43.0670    11.1380 h1         1 J7W       0.039700
     64 H29         -2.5350   -43.9600    13.4250 h1         1 J7W       0.038450
     65 H30         -2.4070   -42.2440    13.0190 h1         1 J7W       0.038450
     66 H31         -1.2510   -44.5620    11.3590 h1         1 J7W       0.031033
     67 H32         -1.8490   -44.0390     9.7700 h1         1 J7W       0.031033
     68 H33         -1.1190   -42.8530    10.8780 h1         1 J7W       0.031033
     69 H9          -3.2830   -41.4780    10.6910 h1         1 J7W       0.038450
@<TRIPOS>BOND
     1     1    17 ar  
     2     1    18 ar  
     3     2    18 1   
     4     2    39 1   
     5     2    40 1   
     6     3    19 ar  
     7     3    20 ar  
     8     3    21 1   
     9     4     6 2   
    10     4    17 1   
    11     4    22 1   
    12     5    22 2   
    13     5    23 1   
    14     5    24 1   
    15     6    23 1   
    16     6    41 1   
    17     7     9 ar  
    18     7    24 1   
    19     7    25 ar  
    20     8    25 ar  
    21     8    26 ar  
    22     8    29 1   
    23     9    27 ar  
    24     9    28 1   
    25    10    29 1   
    26    10    30 1   
    27    10    31 2   
    28    11    30 ar  
    29    11    32 ar  
    30    11    42 1   
    31    12    13 ar  
    32    12    33 ar  
    33    12    43 1   
    34    13    30 ar  
    35    13    44 1   
    36    14    33 1   
    37    14    34 1   
    38    14    45 1   
    39    14    46 1   
    40    15    35 1   
    41    15    36 1   
    42    15    47 1   
    43    15    69 1   
    44    16    34 1   
    45    16    37 1   
    46    16    48 1   
    47    16    49 1   
    48    17    20 ar  
    49    18    19 ar  
    50    19    50 1   
    51    21    51 1   
    52    21    52 1   
    53    24    53 1   
    54    25    54 1   
    55    26    27 ar  
    56    26    55 1   
    57    27    56 1   
    58    28    57 1   
    59    28    58 1   
    60    28    59 1   
    61    29    60 1   
    62    32    33 ar  
    63    32    61 1   
    64    34    35 1   
    65    35    62 1   
    66    35    63 1   
    67    36    37 1   
    68    36    38 1   
    69    37    64 1   
    70    37    65 1   
    71    38    66 1   
    72    38    67 1   
    73    38    68 1   
@<TRIPOS>SUBSTRUCTURE
     1 J7W         1 TEMP              0 ****  ****    0 ROOT
