@<TRIPOS>MOLECULE
J7W
   69    73     1     0     0
SMALL
abcg2


@<TRIPOS>ATOM
      1 N1         -11.9320   -28.2510    10.2570 nb         1 J7W      -0.272500
      2 N3         -13.0350   -26.3220    10.8150 nv         1 J7W      -1.070400
      3 C4          -9.5030   -27.0140    10.3300 ca         1 J7W       0.400900
      4 C5         -10.8430   -30.2790     9.6230 cc         1 J7W       0.260000
      5 C6         -11.8640   -32.1980     9.3040 cd         1 J7W       0.693300
      6 C7          -9.7550   -31.0080     9.2630 cd         1 J7W      -0.238000
      7 C8         -12.7420   -34.4440     8.8630 ca         1 J7W       0.314000
      8 C10        -11.6930   -36.5740     9.2780 ca         1 J7W      -0.004000
      9 C13        -13.4910   -34.9730     7.8070 ca         1 J7W      -0.125300
     10 C15         -9.7200   -37.0860    10.6820 c          1 J7W       0.618700
     11 C17         -9.6030   -39.4110    11.6930 ca         1 J7W      -0.073000
     12 C20         -6.8790   -39.1070    12.0830 ca         1 J7W      -0.111000
     13 C21         -7.6140   -38.0830    11.5130 ca         1 J7W      -0.073000
     14 C22         -6.7070   -41.3930    13.1440 c3         1 J7W       0.214100
     15 C24         -3.8240   -41.9420    10.8260 c6         1 J7W       0.163800
     16 C26         -4.4900   -42.2410    13.5520 c6         1 J7W       0.167300
     17 C1         -10.7870   -28.8510     9.9860 ca         1 J7W       0.184000
     18 C2         -11.8620   -26.9480    10.5800 ca         1 J7W       0.400900
     19 C3         -10.6450   -26.2730    10.6330 ca         1 J7W      -0.378000
     20 N2          -9.5780   -28.3100    10.0010 nb         1 J7W      -0.272500
     21 N4          -8.2670   -26.4740    10.3890 nv         1 J7W      -1.070400
     22 N5         -12.0310   -30.9610     9.6460 nc         1 J7W      -0.685000
     23 S1         -10.2150   -32.6290     8.9220 ss         1 J7W      -0.052400
     24 N6         -12.8830   -33.0870     9.1950 nu         1 J7W      -0.952900
     25 C9         -11.8740   -35.2350     9.6100 ca         1 J7W      -0.147000
     26 C11        -12.4370   -37.1160     8.2320 ca         1 J7W      -0.175000
     27 C12        -13.3270   -36.3250     7.5280 ca         1 J7W      -0.066000
     28 C14        -14.4220   -34.1160     7.0040 c3         1 J7W      -0.043800
     29 N7         -10.8330   -37.4280     9.9790 ns         1 J7W      -0.146000
     30 C16         -8.9840   -38.2270    11.2970 ca         1 J7W      -0.159600
     31 O1          -9.3250   -35.9390    10.8010 o          1 J7W      -0.569100
     32 C18         -8.8620   -40.4310    12.2710 ca         1 J7W      -0.111000
     33 C19         -7.4930   -40.2960    12.4720 ca         1 J7W      -0.059300
     34 N8          -5.3460   -41.4760    12.6680 n3         1 J7W      -0.729600
     35 C23         -5.2580   -41.9910    11.3160 c6         1 J7W       0.167300
     36 N9          -2.9540   -42.6920    11.7090 n3         1 J7W      -0.717600
     37 C25         -3.0540   -42.1880    13.0630 c6         1 J7W       0.163800
     38 C27         -1.5890   -42.6920    11.2370 c3         1 J7W       0.153100
     39 H1         -13.8530   -26.8880    10.9590 hn         1 J7W       0.483750
     40 H2         -13.0360   -25.4170    11.2530 hn         1 J7W       0.483750
     41 H3          -8.7270   -30.6900     9.1970 h4         1 J7W       0.174000
     42 H4         -10.6710   -39.5500    11.5760 ha         1 J7W       0.124500
     43 H5          -5.8120   -38.9900    12.2230 ha         1 J7W       0.125500
     44 H6          -7.1160   -37.1680    11.2200 ha         1 J7W       0.124500
     45 H7          -7.2510   -42.3470    13.0410 h1         1 J7W       0.042200
     46 H8          -6.6770   -41.1790    14.2170 h1         1 J7W       0.042200
     47 H10         -3.7720   -42.3720     9.8230 h1         1 J7W       0.038450
     48 H11         -4.8110   -43.2940    13.6250 h1         1 J7W       0.039700
     49 H12         -4.5420   -41.8160    14.5570 h1         1 J7W       0.039700
     50 H13        -10.5880   -25.2260    10.8980 ha         1 J7W       0.123000
     51 H14         -7.5080   -26.9860     9.9700 hn         1 J7W       0.483750
     52 H15         -8.1620   -25.4750    10.4210 hn         1 J7W       0.483750
     53 H16        -13.8050   -32.6770     9.1590 hn         1 J7W       0.512000
     54 H17        -11.3680   -34.8050    10.4600 ha         1 J7W       0.157000
     55 H18        -12.3200   -38.1600     7.9660 ha         1 J7W       0.112000
     56 H19        -13.8940   -36.7670     6.7180 ha         1 J7W       0.114000
     57 H20        -15.2600   -33.7490     7.6010 hc         1 J7W       0.044367
     58 H21        -13.9110   -33.2410     6.5980 hc         1 J7W       0.044367
     59 H22        -14.8400   -34.6770     6.1700 hc         1 J7W       0.044367
     60 H23        -10.9730   -38.4110     9.7980 hn         1 J7W       0.154000
     61 H24         -9.3630   -41.3430    12.5720 ha         1 J7W       0.125500
     62 H26         -5.8790   -41.3860    10.6510 h1         1 J7W       0.039700
     63 H27         -5.6310   -43.0280    11.2550 h1         1 J7W       0.039700
     64 H29         -2.4280   -42.7960    13.7200 h1         1 J7W       0.038450
     65 H30         -2.6910   -41.1470    13.1390 h1         1 J7W       0.038450
     66 H31         -0.9650   -43.2970    11.8960 h1         1 J7W       0.031033
     67 H32         -1.5380   -43.1260    10.2370 h1         1 J7W       0.031033
     68 H33         -1.1470   -41.6840    11.1880 h1         1 J7W       0.031033
     69 H9          -3.5090   -40.8860    10.7430 h1         1 J7W       0.038450
@<TRIPOS>BOND
     1     1    17 ar  
     2     1    18 ar  
     3     2    18 1   
     4     2    39 1   
     5     2    40 1   
     6     3    19 ar  
     7     3    20 ar  
     8     3    21 1   
     9     4     6 2   
    10     4    17 1   
    11     4    22 1   
    12     5    22 2   
    13     5    23 1   
    14     5    24 1   
    15     6    23 1   
    16     6    41 1   
    17     7     9 ar  
    18     7    24 1   
    19     7    25 ar  
    20     8    25 ar  
    21     8    26 ar  
    22     8    29 1   
    23     9    27 ar  
    24     9    28 1   
    25    10    29 1   
    26    10    30 1   
    27    10    31 2   
    28    11    30 ar  
    29    11    32 ar  
    30    11    42 1   
    31    12    13 ar  
    32    12    33 ar  
    33    12    43 1   
    34    13    30 ar  
    35    13    44 1   
    36    14    33 1   
    37    14    34 1   
    38    14    45 1   
    39    14    46 1   
    40    15    35 1   
    41    15    36 1   
    42    15    47 1   
    43    15    69 1   
    44    16    34 1   
    45    16    37 1   
    46    16    48 1   
    47    16    49 1   
    48    17    20 ar  
    49    18    19 ar  
    50    19    50 1   
    51    21    51 1   
    52    21    52 1   
    53    24    53 1   
    54    25    54 1   
    55    26    27 ar  
    56    26    55 1   
    57    27    56 1   
    58    28    57 1   
    59    28    58 1   
    60    28    59 1   
    61    29    60 1   
    62    32    33 ar  
    63    32    61 1   
    64    34    35 1   
    65    35    62 1   
    66    35    63 1   
    67    36    37 1   
    68    36    38 1   
    69    37    64 1   
    70    37    65 1   
    71    38    66 1   
    72    38    67 1   
    73    38    68 1   
@<TRIPOS>SUBSTRUCTURE
     1 J7W         1 TEMP              0 ****  ****    0 ROOT
