@<TRIPOS>MOLECULE
J7Z
  148   149     1     0     0
SMALL
bcc


@<TRIPOS>ATOM
      1 C1A          0.0660    -1.4680    -1.1110 c          1 J7Z       0.664100
      2 O1A          0.3430    -1.2490    -2.2700 o          1 J7Z      -0.586000
      3 C1B         -4.4290     0.6890     1.0270 c          1 J7Z       0.643100
      4 O1B         -4.7150     1.8540     0.9330 o          1 J7Z      -0.536000
      5 C1D          0.3550     1.2940     2.0040 c6         1 J7Z       0.319900
      6 C1E          3.9530     2.1960    -1.9970 c6         1 J7Z       0.314900
      7 C1G         -1.6960     0.0960    -1.2130 c3         1 J7Z       0.146400
      8 O1G         -0.9620    -0.9000    -0.5060 os         1 J7Z      -0.387900
      9 C2A          0.8200    -2.3930    -0.2020 c3         1 J7Z      -0.140400
     10 C2B         -5.2700    -0.3540     1.7210 c3         1 J7Z      -0.101200
     11 C2D          0.7100     0.5120     3.2670 c6         1 J7Z       0.088100
     12 O2D         -0.0760     0.9140     4.3630 oh         1 J7Z      -0.605800
     13 C2E          3.6970     3.5600    -2.6470 c6         1 J7Z       0.091100
     14 O2E          3.7370     4.6130    -1.7150 oh         1 J7Z      -0.592800
     15 C2G         -2.4340     0.9830    -0.2370 c3         1 J7Z       0.146100
     16 O2G         -3.3300     0.1510     0.5050 os         1 J7Z      -0.406900
     17 C3A          2.0460    -3.0120    -0.8530 c3         1 J7Z      -0.067400
     18 C3B         -6.3400     0.2550     2.5680 c2         1 J7Z      -0.167200
     19 C3D          2.1650     0.7790     3.6300 c6         1 J7Z       0.116100
     20 O3D          2.5970    -0.0140     4.7080 oh         1 J7Z      -0.604800
     21 C3E          2.3290     3.5680    -3.3170 c6         1 J7Z       0.113100
     22 O3E          2.0980     4.7650    -4.0230 oh         1 J7Z      -0.610800
     23 C3G         -1.5370     1.7950     0.6830 c3         1 J7Z       0.119400
     24 O3G         -0.9280     0.9530     1.6390 os         1 J7Z      -0.386600
     25 C4A          2.8200    -3.9020     0.1180 c3         1 J7Z      -0.041200
     26 C4B         -7.6480     0.2410     2.3290 c2         1 J7Z      -0.137200
     27 C4D          3.0800     0.4910     2.4420 c6         1 J7Z       0.125100
     28 O4D          3.1180    -0.8780     2.1280 oh         1 J7Z      -0.593800
     29 C4E          2.2430     2.4150    -4.3120 c6         1 J7Z       0.125100
     30 O4E          3.1370     2.5870    -5.3850 oh         1 J7Z      -0.590800
     31 C5A          4.0250    -4.5050    -0.5360 c2         1 J7Z      -0.168200
     32 C5B         -8.3630    -0.3730     1.1610 c3         1 J7Z      -0.015000
     33 C5D          2.5690     1.2680     1.2360 c6         1 J7Z       0.154100
     34 C5E          2.5680     1.1130    -3.5920 c6         1 J7Z       0.106100
     35 C6A          5.2730    -4.0430    -0.4850 c2         1 J7Z      -0.153200
     36 C6B         -9.2870    -1.4660     1.6150 c2         1 J7Z      -0.169200
     37 C6D          3.3840     1.0280    -0.0170 c3         1 J7Z       0.152400
     38 O6D          1.2240     0.9480     0.9580 os         1 J7Z      -0.421600
     39 C6E          2.5800    -0.0770    -4.5400 c3         1 J7Z       0.158400
     40 O6E          3.8300     1.1740    -2.9450 os         1 J7Z      -0.400600
     41 C7A          5.7640    -2.8410     0.2710 c3         1 J7Z      -0.018000
     42 C7B        -10.6190    -1.4590     1.5870 c2         1 J7Z      -0.157200
     43 C8A          6.6940    -3.2620     1.3730 c2         1 J7Z      -0.162200
     44 C8B        -11.5150    -0.3720     1.0660 c3         1 J7Z      -0.013000
     45 C9A          8.0240    -3.1920     1.3780 c2         1 J7Z      -0.167200
     46 C9B        -12.1530    -0.7910    -0.2280 c2         1 J7Z      -0.165200
     47 CAA          8.9100    -2.6360     0.3010 c3         1 J7Z      -0.013000
     48 CAB        -13.4450    -1.0160    -0.4570 c2         1 J7Z      -0.161200
     49 CBA          9.7240    -1.4830     0.8130 c2         1 J7Z      -0.162200
     50 CBB        -14.5840    -0.8700     0.5120 c3         1 J7Z      -0.012000
     51 CCA         11.0480    -1.4190     0.9380 c2         1 J7Z      -0.164200
     52 CCB        -15.4230     0.3230     0.1500 c2         1 J7Z      -0.165200
     53 CDA         12.0530    -2.4710     0.5650 c3         1 J7Z      -0.012000
     54 CDB        -16.6460     0.3200    -0.3770 c2         1 J7Z      -0.161200
     55 CEA         12.7900    -2.0680    -0.6810 c2         1 J7Z      -0.164200
     56 CEB        -17.4990    -0.8730    -0.6990 c3         1 J7Z      -0.011000
     57 CFA         14.0670    -1.7030    -0.7820 c2         1 J7Z      -0.163200
     58 CFB        -18.6750    -0.9430     0.2330 c2         1 J7Z      -0.165200
     59 CGA         15.0910    -1.6480     0.3150 c3         1 J7Z      -0.011000
     60 CGB        -19.9580    -0.7430    -0.0670 c2         1 J7Z      -0.165200
     61 CHA         16.1030    -2.7440     0.1380 c2         1 J7Z      -0.164200
     62 CHB        -20.5530    -0.4410    -1.4070 c3         1 J7Z      -0.044200
     63 CIA         17.3690    -2.6180    -0.2550 c2         1 J7Z      -0.166200
     64 CIB        -21.5480    -1.5160    -1.8400 c3         1 J7Z      -0.086100
     65 CJA         18.1080    -1.3560    -0.5740 c3         1 J7Z      -0.044200
     66 CKA         19.2850    -1.1320     0.3750 c3         1 J7Z      -0.086100
     67 H1D          0.4400     2.3790     2.2090 h2         1 J7Z       0.032700
     68 H1E          4.9940     2.1360    -1.6470 h2         1 J7Z       0.063700
     69 H1G         -1.0320     0.7250    -1.8080 h1         1 J7Z       0.059700
     70 H1GA        -2.4020    -0.3830    -1.8970 h1         1 J7Z       0.059700
     71 H2A          1.1120    -1.8240     0.6850 hc         1 J7Z       0.081200
     72 H2AA         0.1330    -3.1700     0.1480 hc         1 J7Z       0.081200
     73 H2B         -5.6820    -1.0090     0.9480 hc         1 J7Z       0.078200
     74 H2BA        -4.6140    -0.9870     2.3250 hc         1 J7Z       0.078200
     75 H2D          0.5820    -0.5590     3.0540 h1         1 J7Z       0.073700
     76 HO2D        -0.9720     0.5880     4.2360 ho         1 J7Z       0.428000
     77 H2E          4.4620     3.6930    -3.4220 h1         1 J7Z       0.066700
     78 HO2E         4.6540     4.8670    -1.5730 ho         1 J7Z       0.409000
     79 H2G         -2.9950     1.6960    -0.8500 h1         1 J7Z       0.072700
     80 H3A          1.7540    -3.5940    -1.7320 hc         1 J7Z       0.057700
     81 H3AA         2.7140    -2.2250    -1.2110 hc         1 J7Z       0.057700
     82 H3B         -5.9950     0.7510     3.4690 ha         1 J7Z       0.127000
     83 H3D          2.2650     1.8500     3.8670 h1         1 J7Z       0.049700
     84 HO3D         1.9720     0.0870     5.4330 ho         1 J7Z       0.432000
     85 H3E          1.5540     3.4110    -2.5520 h1         1 J7Z       0.064700
     86 HO3E         2.3160     5.5040    -3.4440 ho         1 J7Z       0.426000
     87 H3G         -0.8010     2.3080     0.0560 h1         1 J7Z       0.055700
     88 H3GA        -2.1240     2.5670     1.1900 h1         1 J7Z       0.055700
     89 H4A          3.0970    -3.3150     0.9950 hc         1 J7Z       0.043200
     90 H4AA         2.1680    -4.7040     0.4750 hc         1 J7Z       0.043200
     91 H4B         -8.2970     0.7200     3.0570 ha         1 J7Z       0.124000
     92 H4D          4.0850     0.8700     2.6800 h1         1 J7Z       0.053700
     93 HO4D         3.3140    -1.3660     2.9360 ho         1 J7Z       0.426000
     94 H4E          1.2050     2.3450    -4.6740 h1         1 J7Z       0.050700
     95 HO4E         3.0080     3.4750    -5.7360 ho         1 J7Z       0.419000
     96 H5A          3.8390    -5.3840    -1.1460 ha         1 J7Z       0.118000
     97 H5B         -8.9170     0.4090     0.6360 hc         1 J7Z       0.053200
     98 H5BA        -7.6550    -0.7840     0.4380 hc         1 J7Z       0.053200
     99 H5D          2.6630     2.3360     1.4930 h1         1 J7Z       0.051700
    100 H5E          1.7710     0.9570    -2.8520 h1         1 J7Z       0.057700
    101 HO5E         1.9630    -1.4300    -3.3010 ho         1 J7Z       0.426000
    102 H6A          6.0400    -4.5820    -1.0330 ha         1 J7Z       0.118000
    103 H6B         -8.7940    -2.3430     2.0220 ha         1 J7Z       0.119000
    104 H6D          4.4520     1.0520     0.2380 h1         1 J7Z       0.052700
    105 H6DA         3.1630     0.0380    -0.4300 h1         1 J7Z       0.052700
    106 H6E          1.6580    -0.0360    -5.1370 h1         1 J7Z       0.053200
    107 H6EA         3.4140     0.0160    -5.2370 h1         1 J7Z       0.053200
    108 H7A          6.2690    -2.1670    -0.4260 hc         1 J7Z       0.055700
    109 H7AA         4.9310    -2.2780     0.6960 hc         1 J7Z       0.055700
    110 H7B        -11.1360    -2.3410     1.9530 ha         1 J7Z       0.120000
    111 H8A          6.2090    -3.7080     2.2360 ha         1 J7Z       0.116000
    112 H8B        -12.2750    -0.1460     1.8160 hc         1 J7Z       0.051700
    113 H8BA       -10.9540     0.5510     0.9050 hc         1 J7Z       0.051700
    114 H9A          8.5480    -3.5670     2.2530 ha         1 J7Z       0.117000
    115 H9B        -11.4590    -0.9360    -1.0520 ha         1 J7Z       0.119000
    116 HAA          9.5590    -3.4300    -0.0750 hc         1 J7Z       0.052700
    117 HAAA         8.3160    -2.3000    -0.5520 hc         1 J7Z       0.052700
    118 HAB        -13.7380    -1.3120    -1.4610 ha         1 J7Z       0.119000
    119 HBA          9.1460    -0.6170     1.1230 ha         1 J7Z       0.116000
    120 HBB        -15.1820    -1.7830     0.5030 hc         1 J7Z       0.050200
    121 HBBA       -14.2130    -0.7520     1.5320 hc         1 J7Z       0.050200
    122 HCA         11.4750    -0.4970     1.3210 ha         1 J7Z       0.117000
    123 HCB        -14.9470     1.2840     0.3220 ha         1 J7Z       0.119000
    124 HDA         12.7470    -2.6150     1.3960 hc         1 J7Z       0.050700
    125 HDAA        11.5660    -3.4340     0.3970 hc         1 J7Z       0.050700
    126 HDB        -17.1080     1.2810    -0.5850 ha         1 J7Z       0.119000
    127 HEA         12.1870    -2.0570    -1.5840 ha         1 J7Z       0.119000
    128 HEB        -17.8310    -0.8050    -1.7360 hc         1 J7Z       0.050200
    129 HEBA       -16.9190    -1.7960    -0.6190 hc         1 J7Z       0.050200
    130 HFA         14.4410    -1.4380    -1.7680 ha         1 J7Z       0.119000
    131 HFB        -18.4230    -1.1560     1.2680 ha         1 J7Z       0.118000
    132 HGA         15.5750    -0.6680     0.3040 hc         1 J7Z       0.049700
    133 HGAA        14.6170    -1.7480     1.2940 hc         1 J7Z       0.049700
    134 HGB        -20.6780    -0.8210     0.7440 ha         1 J7Z       0.115000
    135 HHA         15.7270    -3.7450     0.3290 ha         1 J7Z       0.118000
    136 HHB        -21.0730     0.5210    -1.3540 hc         1 J7Z       0.043700
    137 HHBA       -19.7790    -0.3290    -2.1680 hc         1 J7Z       0.043700
    138 HIA         17.9580    -3.5280    -0.3440 ha         1 J7Z       0.115000
    139 HIB        -21.0560    -2.4830    -1.9490 hc         1 J7Z       0.033033
    140 HIBA       -22.3480    -1.6320    -1.1070 hc         1 J7Z       0.033033
    141 HIBB       -22.0080    -1.2630    -2.7960 hc         1 J7Z       0.033033
    142 HJA         18.4880    -1.4170    -1.5990 hc         1 J7Z       0.043700
    143 HJAA        17.4430    -0.4910    -0.5480 hc         1 J7Z       0.043700
    144 HKA         18.9410    -1.0160     1.4030 hc         1 J7Z       0.032367
    145 HKAA        19.9770    -1.9740     0.3490 hc         1 J7Z       0.032367
    146 HKAB        19.8430    -0.2350     0.1030 hc         1 J7Z       0.032367
    147 O5D          3.0740     2.0550    -0.9320 os         1 J7Z      -0.429600
    148 O5E          2.7250    -1.3100    -3.8850 oh         1 J7Z      -0.601800
@<TRIPOS>BOND
     1     1     2 2   
     2     1     8 1   
     3     1     9 1   
     4     3     4 2   
     5     3    10 1   
     6     3    16 1   
     7     5    11 1   
     8     5    24 1   
     9     5    38 1   
    10     5    67 1   
    11     6    13 1   
    12     6    40 1   
    13     6    68 1   
    14     6   147 1   
    15     7     8 1   
    16     7    15 1   
    17     7    69 1   
    18     7    70 1   
    19     9    17 1   
    20     9    71 1   
    21     9    72 1   
    22    10    18 1   
    23    10    73 1   
    24    10    74 1   
    25    11    12 1   
    26    11    19 1   
    27    11    75 1   
    28    12    76 1   
    29    13    14 1   
    30    13    21 1   
    31    13    77 1   
    32    14    78 1   
    33    15    16 1   
    34    15    23 1   
    35    15    79 1   
    36    17    25 1   
    37    17    80 1   
    38    17    81 1   
    39    18    26 2   
    40    18    82 1   
    41    19    20 1   
    42    19    27 1   
    43    19    83 1   
    44    20    84 1   
    45    21    22 1   
    46    21    29 1   
    47    21    85 1   
    48    22    86 1   
    49    23    24 1   
    50    23    87 1   
    51    23    88 1   
    52    25    31 1   
    53    25    89 1   
    54    25    90 1   
    55    26    32 1   
    56    26    91 1   
    57    27    28 1   
    58    27    33 1   
    59    27    92 1   
    60    28    93 1   
    61    29    30 1   
    62    29    34 1   
    63    29    94 1   
    64    30    95 1   
    65    31    35 2   
    66    31    96 1   
    67    32    36 1   
    68    32    97 1   
    69    32    98 1   
    70    33    37 1   
    71    33    38 1   
    72    33    99 1   
    73    34    39 1   
    74    34    40 1   
    75    34   100 1   
    76    35    41 1   
    77    35   102 1   
    78    36    42 2   
    79    36   103 1   
    80    37   104 1   
    81    37   105 1   
    82    37   147 1   
    83    39   106 1   
    84    39   107 1   
    85    39   148 1   
    86    41    43 1   
    87    41   108 1   
    88    41   109 1   
    89    42    44 1   
    90    42   110 1   
    91    43    45 2   
    92    43   111 1   
    93    44    46 1   
    94    44   112 1   
    95    44   113 1   
    96    45    47 1   
    97    45   114 1   
    98    46    48 2   
    99    46   115 1   
   100    47    49 1   
   101    47   116 1   
   102    47   117 1   
   103    48    50 1   
   104    48   118 1   
   105    49    51 2   
   106    49   119 1   
   107    50    52 1   
   108    50   120 1   
   109    50   121 1   
   110    51    53 1   
   111    51   122 1   
   112    52    54 2   
   113    52   123 1   
   114    53    55 1   
   115    53   124 1   
   116    53   125 1   
   117    54    56 1   
   118    54   126 1   
   119    55    57 2   
   120    55   127 1   
   121    56    58 1   
   122    56   128 1   
   123    56   129 1   
   124    57    59 1   
   125    57   130 1   
   126    58    60 2   
   127    58   131 1   
   128    59    61 1   
   129    59   132 1   
   130    59   133 1   
   131    60    62 1   
   132    60   134 1   
   133    61    63 2   
   134    61   135 1   
   135    62    64 1   
   136    62   136 1   
   137    62   137 1   
   138    63    65 1   
   139    63   138 1   
   140    64   139 1   
   141    64   140 1   
   142    64   141 1   
   143    65    66 1   
   144    65   142 1   
   145    65   143 1   
   146    66   144 1   
   147    66   145 1   
   148    66   146 1   
   149   101   148 1   
@<TRIPOS>SUBSTRUCTURE
     1 J7Z         1 TEMP              0 ****  ****    0 ROOT
