@<TRIPOS>MOLECULE
J7Z
  148   149     1     0     0
SMALL
No Charge or Current Charge


@<TRIPOS>ATOM
      1 C1A          0.7600    -2.1000    -1.3040 c          1 J7Z       0.615100
      2 O1A          1.3760    -1.7990    -2.3190 o          1 J7Z      -0.537000
      3 C1B         -4.4620    -0.6030    -0.3790 c          1 J7Z       0.594100
      4 O1B         -4.9400     0.5160    -0.5060 o          1 J7Z      -0.487000
      5 C1D          0.0520     0.7710     1.5880 c6         1 J7Z       0.366300
      6 C1E          3.5480     2.6680    -2.4340 c6         1 J7Z       0.361300
      7 C1G         -1.0280    -0.5690    -1.8080 c3         1 J7Z       0.169600
      8 O1G         -0.4500    -1.5750    -0.9510 os         1 J7Z      -0.411100
      9 C2A          1.2300    -3.1470    -0.2920 c3         1 J7Z      -0.140400
     10 C2B         -5.2640    -1.8220     0.0940 c3         1 J7Z      -0.101200
     11 C2D          0.5680    -0.0990     2.7790 c6         1 J7Z       0.111300
     12 O2D         -0.3600    -0.1210     3.8930 oh         1 J7Z      -0.728000
     13 C2E          2.9710     3.9020    -3.2060 c6         1 J7Z       0.114300
     14 O2E          2.7070     5.0150    -2.3160 oh         1 J7Z      -0.715000
     15 C2G         -2.2460     0.0990    -1.1110 c3         1 J7Z       0.169300
     16 O2G         -3.1700    -0.9390    -0.6950 os         1 J7Z      -0.430100
     17 C3A          2.5630    -3.8540    -0.6350 c3         1 J7Z      -0.067400
     18 C3B         -5.5220    -1.7990     1.5980 c2         1 J7Z      -0.217200
     19 C3D          1.9630     0.4240     3.2330 c6         1 J7Z       0.139300
     20 O3D          2.4840    -0.4210     4.2750 oh         1 J7Z      -0.667000
     21 C3E          1.6640     3.5090    -3.9610 c6         1 J7Z       0.136300
     22 O3E          1.2020     4.6220    -4.7520 oh         1 J7Z      -0.673000
     23 C3G         -1.8740     1.0260     0.0890 c3         1 J7Z       0.142600
     24 O3G         -1.2150     0.2700     1.1280 os         1 J7Z      -0.433000
     25 C4A          3.0030    -4.8660     0.4430 c3         1 J7Z      -0.041200
     26 C4B         -6.6730    -1.5010     2.2290 c2         1 J7Z      -0.187200
     27 C4D          2.9560     0.4840     2.0310 c6         1 J7Z       0.148300
     28 O4D          3.3070    -0.8610     1.6520 oh         1 J7Z      -0.716000
     29 C4E          1.8890     2.2590    -4.8610 c6         1 J7Z       0.148300
     30 O4E          2.7490     2.6190    -5.9610 oh         1 J7Z      -0.713000
     31 C5A          4.2900    -5.5770     0.0700 c2         1 J7Z      -0.218200
     32 C5B         -7.9890    -1.0700     1.6070 c3         1 J7Z      -0.015000
     33 C5D          2.2960     1.2890     0.8610 c6         1 J7Z       0.177300
     34 C5E          2.4790     1.1070    -3.9850 c6         1 J7Z       0.129300
     35 C6A          5.5470    -5.1490     0.2880 c2         1 J7Z      -0.203200
     36 C6B         -9.0320    -2.1650     1.7170 c2         1 J7Z      -0.219200
     37 C6D          3.1890     1.3230    -0.4150 c3         1 J7Z       0.175600
     38 O6D          1.0070     0.7240     0.5100 os         1 J7Z      -0.468000
     39 C6E          2.7910    -0.1730    -4.8310 c3         1 J7Z       0.181600
     40 O6E          3.6960     1.5290    -3.3130 os         1 J7Z      -0.447000
     41 C7A          5.9790    -3.8420     0.9270 c3         1 J7Z      -0.018000
     42 C7B        -10.3300    -2.0680     1.3820 c2         1 J7Z      -0.207200
     43 C8A          6.8520    -4.1040     2.1390 c2         1 J7Z      -0.212200
     44 C8B        -11.0410    -0.8500     0.8220 c3         1 J7Z      -0.013000
     45 C9A          7.9810    -3.4580     2.4820 c2         1 J7Z      -0.217200
     46 C9B        -11.7940    -1.2090    -0.4460 c2         1 J7Z      -0.215200
     47 CAA          8.6300    -2.3040     1.7410 c3         1 J7Z      -0.013000
     48 CAB        -13.0200    -0.7940    -0.8130 c2         1 J7Z      -0.211200
     49 CBA          9.4230    -1.4210     2.6880 c2         1 J7Z      -0.212200
     50 CBB        -13.9360     0.1490    -0.0540 c3         1 J7Z      -0.012000
     51 CCA         10.6340    -0.8750     2.4710 c2         1 J7Z      -0.214200
     52 CCB        -14.7470     1.0020    -1.0120 c2         1 J7Z      -0.215200
     53 CDA         11.4830    -0.9980     1.2190 c3         1 J7Z      -0.012000
     54 CDB        -16.0610     1.2800    -0.9410 c2         1 J7Z      -0.211200
     55 CEA         12.2910     0.2650     0.9810 c2         1 J7Z      -0.214200
     56 CEB        -17.0350     0.8180     0.1260 c3         1 J7Z      -0.011000
     57 CFA         13.5530     0.3460     0.5220 c2         1 J7Z      -0.213200
     58 CFB        -18.1870     1.7970     0.2680 c2         1 J7Z      -0.215200
     59 CGA         14.4530    -0.8050     0.1150 c3         1 J7Z      -0.011000
     60 CGB        -19.4950     1.5580     0.0630 c2         1 J7Z      -0.215200
     61 CHA         15.3820    -0.3890    -1.0120 c2         1 J7Z      -0.214200
     62 CHB        -20.1320     0.2600    -0.3980 c3         1 J7Z      -0.044200
     63 CIA         16.7270    -0.3740    -1.0040 c2         1 J7Z      -0.216200
     64 CIB        -20.5390    -0.6400     0.7820 c3         1 J7Z      -0.086100
     65 CJA         17.6440    -0.7380     0.1490 c3         1 J7Z      -0.044200
     66 CKA         18.0390    -2.2260     0.1300 c3         1 J7Z      -0.086100
     67 H1D         -0.0730     1.8120     1.9230 h2         1 J7Z       0.032700
     68 H1E          4.5410     2.9440    -2.0490 h2         1 J7Z       0.063700
     69 H1G         -0.2930     0.2140    -2.0390 h1         1 J7Z       0.059700
     70 H1GA        -1.3520    -1.0150    -2.7570 h1         1 J7Z       0.059700
     71 H2A          1.2620    -2.6590     0.6870 hc         1 J7Z       0.081200
     72 H2AA         0.4080    -3.8570    -0.1430 hc         1 J7Z       0.081200
     73 H2B         -6.2050    -1.8450    -0.4630 hc         1 J7Z       0.078200
     74 H2BA        -4.6990    -2.7310    -0.1440 hc         1 J7Z       0.078200
     75 H2D          0.6960    -1.1210     2.3910 h1         1 J7Z       0.073700
     76 HO2D        -1.2510    -0.2900     3.5020 ho         1 J7Z       0.527000
     77 H2E          3.7240     4.1990    -3.9510 h1         1 J7Z       0.066700
     78 HO2E         2.3920     4.6140    -1.4700 ho         1 J7Z       0.508000
     79 H2G         -2.7230     0.7320    -1.8720 h1         1 J7Z       0.072700
     80 H3A          2.4610    -4.3720    -1.5960 hc         1 J7Z       0.057700
     81 H3AA         3.3500    -3.0990    -0.7600 hc         1 J7Z       0.057700
     82 H3B         -4.6480    -2.0800     2.1910 ha         1 J7Z       0.177000
     83 H3D          1.8340     1.4480     3.6170 h1         1 J7Z       0.049700
     84 HO3D         1.7130    -0.5940     4.8650 ho         1 J7Z       0.471000
     85 H3E          0.9020     3.2470    -3.2100 h1         1 J7Z       0.064700
     86 HO3E         1.3400     5.4150    -4.1810 ho         1 J7Z       0.465000
     87 H3G         -1.2260     1.8290    -0.2880 h1         1 J7Z       0.055700
     88 H3GA        -2.7750     1.5080     0.4870 h1         1 J7Z       0.055700
     89 H4A          3.1150    -4.3440     1.4010 hc         1 J7Z       0.043200
     90 H4AA         2.2060    -5.6040     0.5940 hc         1 J7Z       0.043200
     91 H4B         -6.7060    -1.5370     3.3200 ha         1 J7Z       0.174000
     92 H4D          3.8580     1.0240     2.3560 h1         1 J7Z       0.053700
     93 HO4D         3.3740    -1.3380     2.5130 ho         1 J7Z       0.525000
     94 H4E          0.9100     1.9330    -5.2460 h1         1 J7Z       0.050700
     95 HO4E         2.4540     3.5290    -6.2100 ho         1 J7Z       0.518000
     96 H5A          4.1300    -6.5420    -0.4150 ha         1 J7Z       0.168000
     97 H5B         -8.3460    -0.1650     2.1140 hc         1 J7Z       0.053200
     98 H5BA        -7.8610    -0.7840     0.5570 hc         1 J7Z       0.053200
     99 H5D          2.1470     2.3280     1.1910 h1         1 J7Z       0.051700
    100 H5E          1.7360     0.8310    -3.2230 h1         1 J7Z       0.057700
    101 HO5E         2.6320    -1.4810    -3.3710 ho         1 J7Z       0.525000
    102 H6A          6.3860    -5.7720    -0.0310 ha         1 J7Z       0.168000
    103 H6B         -8.6490    -3.1100     2.1090 ha         1 J7Z       0.169000
    104 H6D          4.2180     1.5510    -0.1090 h1         1 J7Z       0.052700
    105 H6DA         3.1840     0.3340    -0.8910 h1         1 J7Z       0.052700
    106 H6E          1.8610    -0.4880    -5.3260 h1         1 J7Z       0.053200
    107 H6EA         3.5000     0.1010    -5.6240 h1         1 J7Z       0.053200
    108 H7A          6.5140    -3.2430     0.1800 hc         1 J7Z       0.055700
    109 H7AA         5.1140    -3.2410     1.2250 hc         1 J7Z       0.055700
    110 H7B        -10.9840    -2.9340     1.5120 ha         1 J7Z       0.170000
    111 H8A          6.4890    -4.9180     2.7700 ha         1 J7Z       0.166000
    112 H8B        -11.7220    -0.4550     1.5850 hc         1 J7Z       0.051700
    113 H8BA       -10.3290    -0.0460     0.6040 hc         1 J7Z       0.051700
    114 H9A          8.5180    -3.7640     3.3820 ha         1 J7Z       0.167000
    115 H9B        -11.2420    -1.8870    -1.1010 ha         1 J7Z       0.169000
    116 HAA          9.2740    -2.7080     0.9500 hc         1 J7Z       0.052700
    117 HAAA         7.8690    -1.6950     1.2380 hc         1 J7Z       0.052700
    118 HAB        -13.4410    -1.1490    -1.7560 ha         1 J7Z       0.169000
    119 HBA          8.9190    -1.2380     3.6390 ha         1 J7Z       0.166000
    120 HBB        -14.5920    -0.4400     0.5980 hc         1 J7Z       0.050200
    121 HBBA       -13.3560     0.8060     0.6050 hc         1 J7Z       0.050200
    122 HCA         11.0910    -0.2680     3.2550 ha         1 J7Z       0.167000
    123 HCB        -14.1580     1.4120    -1.8360 ha         1 J7Z       0.169000
    124 HDA         12.1420    -1.8680     1.3190 hc         1 J7Z       0.050700
    125 HDAA        10.8530    -1.1850     0.3410 hc         1 J7Z       0.050700
    126 HDB        -16.5170     1.9050    -1.7120 ha         1 J7Z       0.169000
    127 HEA         11.7520     1.1830     1.2250 ha         1 J7Z       0.169000
    128 HEB        -17.3940    -0.1880    -0.1200 hc         1 J7Z       0.050200
    129 HEBA       -16.5280     0.7240     1.0940 hc         1 J7Z       0.050200
    130 HFA         14.0180     1.3280     0.4080 ha         1 J7Z       0.169000
    131 HFB        -17.8700     2.7900     0.5960 ha         1 J7Z       0.168000
    132 HGA         15.0170    -1.1520     0.9880 hc         1 J7Z       0.049700
    133 HGAA        13.8570    -1.6630    -0.2160 hc         1 J7Z       0.049700
    134 HGB        -20.2160     2.3650     0.2190 ha         1 J7Z       0.165000
    135 HHA         14.8510    -0.0930    -1.9190 ha         1 J7Z       0.168000
    136 HHB        -21.0200     0.4780    -1.0050 hc         1 J7Z       0.043700
    137 HHBA       -19.4530    -0.2990    -1.0540 hc         1 J7Z       0.043700
    138 HIA         17.2630    -0.0590    -1.9020 ha         1 J7Z       0.165000
    139 HIB        -19.6620    -0.9070     1.3840 hc         1 J7Z       0.033033
    140 HIBA       -21.2610    -0.1270     1.4290 hc         1 J7Z       0.033033
    141 HIBB       -21.0010    -1.5660     0.4170 hc         1 J7Z       0.033033
    142 HJA         18.5540    -0.1260     0.1060 hc         1 J7Z       0.043700
    143 HJAA        17.1750    -0.5070     1.1130 hc         1 J7Z       0.043700
    144 HKA         17.1500    -2.8620     0.2120 hc         1 J7Z       0.032367
    145 HKAA        18.5600    -2.4760    -0.8020 hc         1 J7Z       0.032367
    146 HKAB        18.7060    -2.4560     0.9700 hc         1 J7Z       0.032367
    147 O5D          2.6990     2.3380    -1.3160 os         1 J7Z      -0.476000
    148 O5E          3.3270    -1.2620    -4.0540 oh         1 J7Z      -0.724000
@<TRIPOS>BOND
     1     1     2 2   
     2     1     8 1   
     3     1     9 1   
     4     3     4 2   
     5     3    10 1   
     6     3    16 1   
     7     5    11 1   
     8     5    24 1   
     9     5    38 1   
    10     5    67 1   
    11     6    13 1   
    12     6    40 1   
    13     6    68 1   
    14     6   147 1   
    15     7     8 1   
    16     7    15 1   
    17     7    69 1   
    18     7    70 1   
    19     9    17 1   
    20     9    71 1   
    21     9    72 1   
    22    10    18 1   
    23    10    73 1   
    24    10    74 1   
    25    11    12 1   
    26    11    19 1   
    27    11    75 1   
    28    12    76 1   
    29    13    14 1   
    30    13    21 1   
    31    13    77 1   
    32    14    78 1   
    33    15    16 1   
    34    15    23 1   
    35    15    79 1   
    36    17    25 1   
    37    17    80 1   
    38    17    81 1   
    39    18    26 2   
    40    18    82 1   
    41    19    20 1   
    42    19    27 1   
    43    19    83 1   
    44    20    84 1   
    45    21    22 1   
    46    21    29 1   
    47    21    85 1   
    48    22    86 1   
    49    23    24 1   
    50    23    87 1   
    51    23    88 1   
    52    25    31 1   
    53    25    89 1   
    54    25    90 1   
    55    26    32 1   
    56    26    91 1   
    57    27    28 1   
    58    27    33 1   
    59    27    92 1   
    60    28    93 1   
    61    29    30 1   
    62    29    34 1   
    63    29    94 1   
    64    30    95 1   
    65    31    35 2   
    66    31    96 1   
    67    32    36 1   
    68    32    97 1   
    69    32    98 1   
    70    33    37 1   
    71    33    38 1   
    72    33    99 1   
    73    34    39 1   
    74    34    40 1   
    75    34   100 1   
    76    35    41 1   
    77    35   102 1   
    78    36    42 2   
    79    36   103 1   
    80    37   104 1   
    81    37   105 1   
    82    37   147 1   
    83    39   106 1   
    84    39   107 1   
    85    39   148 1   
    86    41    43 1   
    87    41   108 1   
    88    41   109 1   
    89    42    44 1   
    90    42   110 1   
    91    43    45 2   
    92    43   111 1   
    93    44    46 1   
    94    44   112 1   
    95    44   113 1   
    96    45    47 1   
    97    45   114 1   
    98    46    48 2   
    99    46   115 1   
   100    47    49 1   
   101    47   116 1   
   102    47   117 1   
   103    48    50 1   
   104    48   118 1   
   105    49    51 2   
   106    49   119 1   
   107    50    52 1   
   108    50   120 1   
   109    50   121 1   
   110    51    53 1   
   111    51   122 1   
   112    52    54 2   
   113    52   123 1   
   114    53    55 1   
   115    53   124 1   
   116    53   125 1   
   117    54    56 1   
   118    54   126 1   
   119    55    57 2   
   120    55   127 1   
   121    56    58 1   
   122    56   128 1   
   123    56   129 1   
   124    57    59 1   
   125    57   130 1   
   126    58    60 2   
   127    58   131 1   
   128    59    61 1   
   129    59   132 1   
   130    59   133 1   
   131    60    62 1   
   132    60   134 1   
   133    61    63 2   
   134    61   135 1   
   135    62    64 1   
   136    62   136 1   
   137    62   137 1   
   138    63    65 1   
   139    63   138 1   
   140    64   139 1   
   141    64   140 1   
   142    64   141 1   
   143    65    66 1   
   144    65   142 1   
   145    65   143 1   
   146    66   144 1   
   147    66   145 1   
   148    66   146 1   
   149   101   148 1   
@<TRIPOS>SUBSTRUCTURE
     1 J7Z         1 TEMP              0 ****  ****    0 ROOT
