@<TRIPOS>MOLECULE
J80
   60    62     1     0     0
SMALL
bcc


@<TRIPOS>ATOM
      1 C1           1.3200     0.3700   -11.0580 c3         1 J80      -0.136400
      2 C2           1.0010     0.2980    -9.5980 ca         1 J80       0.313600
      3 C3           1.7960     0.9460    -8.6380 ca         1 J80      -0.174300
      4 C4           1.4560     0.8440    -7.3230 ca         1 J80      -0.249300
      5 C5           0.3130     0.0740    -6.9980 ca         1 J80       0.612200
      6 N4          -0.3870    -0.5170    -7.9600 nb         1 J80      -0.404000
      7 N3          -0.0540    -0.3940    -9.2290 nb         1 J80      -0.287000
      8 N6          -0.1390    -0.0640    -5.7110 nh         1 J80      -0.763300
      9 C7          -1.2850    -0.9290    -5.4660 c6         1 J80       0.212800
     10 C8          -1.9870    -0.5620    -4.1690 c6         1 J80      -0.082400
     11 C9          -1.0380    -0.5570    -2.9770 c6         1 J80      -0.061700
     12 C10          0.1210     0.3790    -3.2980 c6         1 J80      -0.082400
     13 C11          0.8030    -0.0020    -4.6020 c6         1 J80       0.212800
     14 C12         -1.7700    -0.1920    -1.6880 c3         1 J80      -0.070400
     15 C13         -0.9150    -0.2870    -0.4300 c3         1 J80      -0.073400
     16 C14         -1.7200    -0.0210     0.8370 c3         1 J80      -0.083400
     17 C15         -0.8480    -0.1100     2.0710 c3         1 J80       0.141400
     18 O16         -1.6570     0.1630     3.2100 os         1 J80      -0.321900
     19 C17         -1.1040     0.1510     4.4270 ca         1 J80       0.180100
     20 C18         -1.9570     0.4440     5.4970 ca         1 J80      -0.215000
     21 C19         -1.4730     0.4550     6.7860 ca         1 J80      -0.033000
     22 C20         -0.1300     0.1740     7.0520 ca         1 J80      -0.187600
     23 C21          0.7130    -0.1170     5.9830 ca         1 J80      -0.033000
     24 C22          0.2390    -0.1300     4.6810 ca         1 J80      -0.215000
     25 C23          0.3360     0.2000     8.4550 c          1 J80       0.664700
     26 O24         -0.3730     0.4780     9.3950 o          1 J80      -0.548000
     27 O25          1.6160    -0.1170     8.5760 os         1 J80      -0.427900
     28 C26          2.1940    -0.1190     9.8900 c3         1 J80       0.146400
     29 C27          3.6400    -0.5280     9.7540 c3         1 J80      -0.098100
     30 H11          1.3420     1.4030   -11.4060 hc         1 J80       0.050367
     31 H12          2.3020    -0.0590   -11.2680 hc         1 J80       0.050367
     32 H13          0.5790    -0.1730   -11.6410 hc         1 J80       0.050367
     33 H3           2.6610     1.5220    -8.9400 ha         1 J80       0.143000
     34 H4           2.0420     1.3540    -6.5730 ha         1 J80       0.145000
     35 H71         -0.9660    -1.9800    -5.4290 h1         1 J80       0.048200
     36 H72         -1.9780    -0.8410    -6.2980 h1         1 J80       0.048200
     37 H81         -2.7980    -1.2760    -4.0080 hc         1 J80       0.050450
     38 H82         -2.4490     0.4270    -4.2710 hc         1 J80       0.050450
     39 H9          -0.6320    -1.5720    -2.8650 hc         1 J80       0.046700
     40 H101        -0.2480     1.4080    -3.3650 hc         1 J80       0.050450
     41 H102         0.8770     0.3620    -2.5110 hc         1 J80       0.050450
     42 H111         1.3020    -0.9740    -4.4820 h1         1 J80       0.048200
     43 H112         1.5810     0.7280    -4.8090 h1         1 J80       0.048200
     44 H121        -2.6310    -0.8600    -1.5820 hc         1 J80       0.043700
     45 H122        -2.1790     0.8210    -1.7770 hc         1 J80       0.043700
     46 H131        -0.0850     0.4230    -0.4820 hc         1 J80       0.039200
     47 H132        -0.4630    -1.2840    -0.3760 hc         1 J80       0.039200
     48 H141        -2.5370    -0.7440     0.9140 hc         1 J80       0.057700
     49 H142        -2.1740     0.9730     0.7830 hc         1 J80       0.057700
     50 H151        -0.0270     0.6140     2.0120 h1         1 J80       0.036700
     51 H152        -0.4050    -1.1090     2.1520 h1         1 J80       0.036700
     52 H18         -3.0000     0.6600     5.3020 ha         1 J80       0.144000
     53 H19         -2.1480     0.6830     7.6010 ha         1 J80       0.150500
     54 H21          1.7580    -0.3370     6.1480 ha         1 J80       0.150500
     55 H22          0.9290    -0.3590     3.8800 ha         1 J80       0.144000
     56 H261         1.6500    -0.8150    10.5320 h1         1 J80       0.049200
     57 H262         2.1110     0.8780    10.3280 h1         1 J80       0.049200
     58 H271         4.1040    -0.5300    10.7400 hc         1 J80       0.046033
     59 H272         3.7360    -1.5320     9.3390 hc         1 J80       0.046033
     60 H273         4.1960     0.1650     9.1230 hc         1 J80       0.046033
@<TRIPOS>BOND
     1     1     2 1   
     2     1    30 1   
     3     1    31 1   
     4     1    32 1   
     5     2     3 ar  
     6     2     7 ar  
     7     3     4 ar  
     8     3    33 1   
     9     4     5 ar  
    10     4    34 1   
    11     5     6 ar  
    12     5     8 1   
    13     6     7 ar  
    14     8     9 1   
    15     8    13 1   
    16     9    10 1   
    17     9    35 1   
    18     9    36 1   
    19    10    11 1   
    20    10    37 1   
    21    10    38 1   
    22    11    12 1   
    23    11    14 1   
    24    11    39 1   
    25    12    13 1   
    26    12    40 1   
    27    12    41 1   
    28    13    42 1   
    29    13    43 1   
    30    14    15 1   
    31    14    44 1   
    32    14    45 1   
    33    15    16 1   
    34    15    46 1   
    35    15    47 1   
    36    16    17 1   
    37    16    48 1   
    38    16    49 1   
    39    17    18 1   
    40    17    50 1   
    41    17    51 1   
    42    18    19 1   
    43    19    20 ar  
    44    19    24 ar  
    45    20    21 ar  
    46    20    52 1   
    47    21    22 ar  
    48    21    53 1   
    49    22    23 ar  
    50    22    25 1   
    51    23    24 ar  
    52    23    54 1   
    53    24    55 1   
    54    25    26 2   
    55    25    27 1   
    56    27    28 1   
    57    28    29 1   
    58    28    56 1   
    59    28    57 1   
    60    29    58 1   
    61    29    59 1   
    62    29    60 1   
@<TRIPOS>SUBSTRUCTURE
     1 J80         1 TEMP              0 ****  ****    0 ROOT
