@<TRIPOS>MOLECULE
J80
   60    62     1     0     0
SMALL
No Charge or Current Charge


@<TRIPOS>ATOM
      1 C1           1.3400     0.4460   -11.2960 c3         1 J80      -0.136400
      2 C2           0.9940     0.3510    -9.8210 ca         1 J80       0.248300
      3 C3           1.5180     1.2550    -8.8760 ca         1 J80      -0.091000
      4 C4           1.1470     1.0930    -7.5250 ca         1 J80      -0.166000
      5 C5           0.2770     0.0350    -7.1890 ca         1 J80       0.546900
      6 N4          -0.1980    -0.7990    -8.1510 nb         1 J80      -0.404000
      7 N3           0.1550    -0.6460    -9.4480 nb         1 J80      -0.287000
      8 N6          -0.1470    -0.1920    -5.8590 nh         1 J80      -0.763300
      9 C7          -1.3490    -1.0260    -5.5680 c6         1 J80       0.212800
     10 C8          -2.0110    -0.6040    -4.2330 c6         1 J80      -0.082400
     11 C9          -1.0060    -0.6380    -3.0520 c6         1 J80      -0.061700
     12 C10          0.2290     0.2330    -3.4150 c6         1 J80      -0.082400
     13 C11          0.8590    -0.2040    -4.7600 c6         1 J80       0.212800
     14 C12         -1.6920    -0.2000    -1.7220 c3         1 J80      -0.070400
     15 C13         -0.8210    -0.3320    -0.4500 c3         1 J80      -0.073400
     16 C14         -1.5870     0.0170     0.8450 c3         1 J80      -0.083400
     17 C15         -0.7170    -0.1110     2.1100 c3         1 J80       0.164600
     18 O16         -1.5370     0.2370     3.2390 os         1 J80      -0.345100
     19 C17         -1.0520     0.2230     4.5300 ca         1 J80       0.180100
     20 C18         -1.9290     0.5780     5.5630 ca         1 J80      -0.197000
     21 C19         -1.4960     0.5840     6.9000 ca         1 J80      -0.015000
     22 C20         -0.1670     0.2310     7.2220 ca         1 J80      -0.187600
     23 C21          0.7160    -0.1270     6.1770 ca         1 J80      -0.015000
     24 C22          0.2770    -0.1310     4.8410 ca         1 J80      -0.197000
     25 C23          0.2830     0.2420     8.6630 c          1 J80       0.615700
     26 O24         -0.4590     0.5470     9.5880 o          1 J80      -0.499000
     27 O25          1.5950    -0.1200     8.8350 os         1 J80      -0.451100
     28 C26          2.1240    -0.1420    10.1710 c3         1 J80       0.169600
     29 C27          3.5950    -0.5760    10.0760 c3         1 J80      -0.098100
     30 H11          1.7220     1.4410   -11.5530 hc         1 J80       0.050367
     31 H12          2.1100    -0.2870   -11.5630 hc         1 J80       0.050367
     32 H13          0.4610     0.2570   -11.9240 hc         1 J80       0.050367
     33 H3           2.1860     2.0560    -9.1800 ha         1 J80       0.125000
     34 H4           1.5110     1.7780    -6.7670 ha         1 J80       0.127000
     35 H71         -1.0690    -2.0880    -5.5170 h1         1 J80       0.048200
     36 H72         -2.1000    -0.9190    -6.3650 h1         1 J80       0.048200
     37 H81         -2.8610    -1.2680    -4.0260 hc         1 J80       0.050450
     38 H82         -2.4260     0.4080    -4.3410 hc         1 J80       0.050450
     39 H9          -0.6740    -1.6770    -2.9090 hc         1 J80       0.046700
     40 H101        -0.0630     1.2910    -3.4770 hc         1 J80       0.050450
     41 H102         0.9940     0.1630    -2.6320 hc         1 J80       0.050450
     42 H111         1.2740    -1.2170    -4.6490 h1         1 J80       0.048200
     43 H112         1.7020     0.4640    -4.9810 h1         1 J80       0.048200
     44 H121        -2.5970    -0.8020    -1.5740 hc         1 J80       0.043700
     45 H122        -2.0320     0.8400    -1.8070 hc         1 J80       0.043700
     46 H131         0.0500     0.3290    -0.5300 hc         1 J80       0.039200
     47 H132        -0.4410    -1.3590    -0.3780 hc         1 J80       0.039200
     48 H141        -2.4570    -0.6450     0.9420 hc         1 J80       0.057700
     49 H142        -1.9680     1.0440     0.7760 hc         1 J80       0.057700
     50 H151         0.1440     0.5660     2.0330 h1         1 J80       0.036700
     51 H152        -0.3500    -1.1410     2.2000 h1         1 J80       0.036700
     52 H18         -2.9540     0.8510     5.3270 ha         1 J80       0.126000
     53 H19         -2.1970     0.8630     7.6840 ha         1 J80       0.132500
     54 H21          1.7470    -0.4040     6.3900 ha         1 J80       0.132500
     55 H22          0.9830    -0.4110     4.0650 ha         1 J80       0.126000
     56 H261         1.5720    -0.8530    10.8000 h1         1 J80       0.049200
     57 H262         2.0640     0.8530    10.6330 h1         1 J80       0.049200
     58 H271         4.0460    -0.6090    11.0750 hc         1 J80       0.046033
     59 H272         3.6750    -1.5740     9.6300 hc         1 J80       0.046033
     60 H273         4.1680     0.1300     9.4630 hc         1 J80       0.046033
@<TRIPOS>BOND
     1     1     2 1   
     2     1    30 1   
     3     1    31 1   
     4     1    32 1   
     5     2     3 ar  
     6     2     7 ar  
     7     3     4 ar  
     8     3    33 1   
     9     4     5 ar  
    10     4    34 1   
    11     5     6 ar  
    12     5     8 1   
    13     6     7 ar  
    14     8     9 1   
    15     8    13 1   
    16     9    10 1   
    17     9    35 1   
    18     9    36 1   
    19    10    11 1   
    20    10    37 1   
    21    10    38 1   
    22    11    12 1   
    23    11    14 1   
    24    11    39 1   
    25    12    13 1   
    26    12    40 1   
    27    12    41 1   
    28    13    42 1   
    29    13    43 1   
    30    14    15 1   
    31    14    44 1   
    32    14    45 1   
    33    15    16 1   
    34    15    46 1   
    35    15    47 1   
    36    16    17 1   
    37    16    48 1   
    38    16    49 1   
    39    17    18 1   
    40    17    50 1   
    41    17    51 1   
    42    18    19 1   
    43    19    20 ar  
    44    19    24 ar  
    45    20    21 ar  
    46    20    52 1   
    47    21    22 ar  
    48    21    53 1   
    49    22    23 ar  
    50    22    25 1   
    51    23    24 ar  
    52    23    54 1   
    53    24    55 1   
    54    25    26 2   
    55    25    27 1   
    56    27    28 1   
    57    28    29 1   
    58    28    56 1   
    59    28    57 1   
    60    29    58 1   
    61    29    59 1   
    62    29    60 1   
@<TRIPOS>SUBSTRUCTURE
     1 J80         1 TEMP              0 ****  ****    0 ROOT
