@<TRIPOS>MOLECULE
J81
  103   103     1     0     0
SMALL
bcc


@<TRIPOS>ATOM
      1 C9          17.5730    -0.1460     0.7900 c3         1 J81      -0.088100
      2 C8          16.2730     0.6240     0.6090 c3         1 J81      -0.074400
      3 C7          15.0480    -0.2830     0.5860 c3         1 J81      -0.075400
      4 C6          13.7380     0.4760     0.4150 c3         1 J81      -0.074400
      5 C5          12.5160    -0.4340     0.3820 c3         1 J81      -0.074400
      6 C4          11.2060     0.3240     0.2120 c3         1 J81      -0.074400
      7 C3           9.9870    -0.5890     0.1720 c3         1 J81      -0.072400
      8 C2           8.6810     0.1750     0.0020 c3         1 J81      -0.095400
      9 C1           7.4770    -0.7520    -0.0390 c3         1 J81       0.107000
     10 N2           6.2540     0.0070    -0.1990 ns         1 J81      -0.581900
     11 C18          5.0410    -0.5620    -0.2890 c          1 J81       0.664100
     12 O            4.8880    -1.7760    -0.2760 o          1 J81      -0.601100
     13 C19          3.8860     0.4160    -0.3930 c3         1 J81      -0.158400
     14 C20          2.5370    -0.2450    -0.6250 c3         1 J81      -0.061400
     15 C21          1.4230     0.7920    -0.6940 c3         1 J81      -0.111400
     16 C22          0.0510     0.1810    -0.9730 c3         1 J81       0.115100
     17 O3          -0.2670    -0.8120    -0.0200 oh         1 J81      -0.581800
     18 C23         -1.0550     1.2570    -1.0510 c3         1 J81       0.105100
     19 O2          -0.6320     2.3790    -1.7910 oh         1 J81      -0.581800
     20 C24         -2.3800     0.7350    -1.6430 c3         1 J81       0.090700
     21 C25         -3.4180     1.8380    -1.8180 c3         1 J81       0.121400
     22 O5          -3.6720     2.4180    -0.5550 os         1 J81      -0.431600
     23 C28         -4.8940     3.0660    -0.4340 c6         1 J81       0.312900
     24 O9          -5.9700     2.1710    -0.3640 os         1 J81      -0.401600
     25 C27         -5.9460     1.3010     0.7560 c6         1 J81       0.151100
     26 C26         -7.1190     0.3510     0.6420 c3         1 J81       0.146400
     27 O8          -6.9330    -0.4550    -0.4970 oh         1 J81      -0.590800
     28 C31         -5.9520     2.0780     2.0660 c6         1 J81       0.123100
     29 O7          -7.1880     2.7360     2.2100 oh         1 J81      -0.592800
     30 C30         -4.7870     3.0650     2.0650 c6         1 J81       0.117100
     31 O4          -4.8700     3.8250     3.2480 oh         1 J81      -0.611800
     32 C29         -4.8570     3.9420     0.8220 c6         1 J81       0.091100
     33 O6          -3.7570     4.8170     0.8380 oh         1 J81      -0.588800
     34 N1          -2.9380    -0.3330    -0.8490 ns         1 J81      -0.561900
     35 C17         -3.5420    -1.4200    -1.3570 c          1 J81       0.682100
     36 O1          -3.6400    -1.6260    -2.5600 o          1 J81      -0.613100
     37 C10         -4.0810    -2.3780    -0.3150 c3         1 J81      -0.149400
     38 C11         -5.0740    -3.3880    -0.8650 c3         1 J81      -0.062400
     39 C12         -5.7620    -4.1740     0.2430 c3         1 J81      -0.076400
     40 C13         -6.7580    -5.1990    -0.2850 c3         1 J81      -0.075400
     41 C14         -7.4840    -5.9570     0.8180 c3         1 J81      -0.075400
     42 C15         -8.4850    -6.9770     0.2890 c3         1 J81      -0.075400
     43 C16         -9.2150    -7.7230     1.3970 c3         1 J81      -0.088100
     44 H1          18.4390     0.5170     0.7960 hc         1 J81       0.031367
     45 H2          17.5750    -0.7000     1.7310 hc         1 J81       0.031367
     46 H3          17.7180    -0.8700    -0.0150 hc         1 J81       0.031367
     47 H4          16.1640     1.3560     1.4160 hc         1 J81       0.036700
     48 H5          16.3120     1.2020    -0.3200 hc         1 J81       0.036700
     49 H6          15.1550    -1.0110    -0.2260 hc         1 J81       0.037700
     50 H7          15.0120    -0.8660     1.5130 hc         1 J81       0.037700
     51 H8          13.6280     1.2000     1.2300 hc         1 J81       0.036700
     52 H9          13.7760     1.0650    -0.5090 hc         1 J81       0.036700
     53 H10         12.6260    -1.1570    -0.4340 hc         1 J81       0.038700
     54 H11         12.4780    -1.0240     1.3050 hc         1 J81       0.038700
     55 H12         11.0930     1.0440     1.0310 hc         1 J81       0.037700
     56 H13         11.2450     0.9170    -0.7090 hc         1 J81       0.037700
     57 H14         10.0990    -1.3070    -0.6470 hc         1 J81       0.043200
     58 H15          9.9470    -1.1810     1.0930 hc         1 J81       0.043200
     59 H16          8.5650     0.8880     0.8260 hc         1 J81       0.041700
     60 H17          8.7180     0.7650    -0.9190 hc         1 J81       0.041700
     61 H18          7.5870    -1.4600    -0.8660 h1         1 J81       0.051200
     62 H19          7.4370    -1.3440     0.8800 h1         1 J81       0.051200
     63 H20          6.3180     1.0120    -0.2000 hn         1 J81       0.309500
     64 H21          3.8590     1.0060     0.5300 hc         1 J81       0.052700
     65 H22          4.0980     1.1340    -1.1910 hc         1 J81       0.052700
     66 H23          2.5580    -0.8150    -1.5580 hc         1 J81       0.062700
     67 H24          2.3410    -0.9620     0.1730 hc         1 J81       0.062700
     68 H25          1.3830     1.3590     0.2460 hc         1 J81       0.047200
     69 H26          1.6610     1.5190    -1.4720 hc         1 J81       0.047200
     70 H27          0.0920    -0.3430    -1.9370 h1         1 J81       0.076700
     71 H28         -0.1810    -0.4240     0.8580 ho         1 J81       0.397000
     72 H29         -1.2340     1.6300    -0.0360 h1         1 J81       0.082700
     73 H30         -0.4140     2.0980    -2.6870 ho         1 J81       0.400000
     74 H31         -2.1700     0.3330    -2.6390 h1         1 J81       0.081700
     75 H32         -3.0730     2.5990    -2.5260 h1         1 J81       0.051700
     76 H33         -4.3220     1.3830    -2.2360 h1         1 J81       0.051700
     77 H34         -5.0960     3.6880    -1.3180 h2         1 J81       0.069700
     78 H35         -5.0300     0.6970     0.7520 h1         1 J81       0.051700
     79 H36         -7.1500    -0.2470     1.5620 h1         1 J81       0.035700
     80 H37         -8.0580     0.9140     0.5900 h1         1 J81       0.035700
     81 H38         -7.6600    -1.0820    -0.5380 ho         1 J81       0.406000
     82 H39         -5.7950     1.3550     2.8810 h1         1 J81       0.048700
     83 H40         -7.1170     3.3340     2.9620 ho         1 J81       0.422000
     84 H41         -3.8530     2.4850     2.0410 h1         1 J81       0.062700
     85 H42         -4.2630     4.5690     3.1750 ho         1 J81       0.430000
     86 H43         -5.8010     4.5020     0.8460 h1         1 J81       0.063700
     87 H44         -3.9550     5.5730     0.2770 ho         1 J81       0.413000
     88 H45         -2.8970    -0.2400     0.1520 hn         1 J81       0.312500
     89 H46         -3.2310    -2.8930     0.1460 hc         1 J81       0.054700
     90 H47         -4.5500    -1.7990     0.4860 hc         1 J81       0.054700
     91 H48         -5.8320    -2.8690    -1.4560 hc         1 J81       0.056200
     92 H49         -4.5690    -4.0780    -1.5460 hc         1 J81       0.056200
     93 H50         -5.0130    -4.6800     0.8620 hc         1 J81       0.032700
     94 H51         -6.2820    -3.4740     0.9070 hc         1 J81       0.032700
     95 H52         -7.4930    -4.6930    -0.9200 hc         1 J81       0.039200
     96 H53         -6.2370    -5.9120    -0.9340 hc         1 J81       0.039200
     97 H54         -6.7510    -6.4660     1.4550 hc         1 J81       0.035700
     98 H55         -8.0030    -5.2430     1.4670 hc         1 J81       0.035700
     99 H56         -9.2130    -6.4680    -0.3510 hc         1 J81       0.037700
    100 H57         -7.9650    -7.6930    -0.3550 hc         1 J81       0.037700
    101 H58         -8.5150    -8.2680     2.0330 hc         1 J81       0.031033
    102 H59         -9.7690    -7.0340     2.0370 hc         1 J81       0.031033
    103 H60         -9.9260    -8.4450     0.9940 hc         1 J81       0.031033
@<TRIPOS>BOND
     1     1     2 1   
     2     1    44 1   
     3     1    45 1   
     4     1    46 1   
     5     2     3 1   
     6     2    47 1   
     7     2    48 1   
     8     3     4 1   
     9     3    49 1   
    10     3    50 1   
    11     4     5 1   
    12     4    51 1   
    13     4    52 1   
    14     5     6 1   
    15     5    53 1   
    16     5    54 1   
    17     6     7 1   
    18     6    55 1   
    19     6    56 1   
    20     7     8 1   
    21     7    57 1   
    22     7    58 1   
    23     8     9 1   
    24     8    59 1   
    25     8    60 1   
    26     9    10 1   
    27     9    61 1   
    28     9    62 1   
    29    10    11 1   
    30    10    63 1   
    31    11    12 2   
    32    11    13 1   
    33    13    14 1   
    34    13    64 1   
    35    13    65 1   
    36    14    15 1   
    37    14    66 1   
    38    14    67 1   
    39    15    16 1   
    40    15    68 1   
    41    15    69 1   
    42    16    17 1   
    43    16    18 1   
    44    16    70 1   
    45    17    71 1   
    46    18    19 1   
    47    18    20 1   
    48    18    72 1   
    49    19    73 1   
    50    20    21 1   
    51    20    34 1   
    52    20    74 1   
    53    21    22 1   
    54    21    75 1   
    55    21    76 1   
    56    22    23 1   
    57    23    24 1   
    58    23    32 1   
    59    23    77 1   
    60    24    25 1   
    61    25    26 1   
    62    25    28 1   
    63    25    78 1   
    64    26    27 1   
    65    26    79 1   
    66    26    80 1   
    67    27    81 1   
    68    28    29 1   
    69    28    30 1   
    70    28    82 1   
    71    29    83 1   
    72    30    31 1   
    73    30    32 1   
    74    30    84 1   
    75    31    85 1   
    76    32    33 1   
    77    32    86 1   
    78    33    87 1   
    79    34    35 1   
    80    34    88 1   
    81    35    36 2   
    82    35    37 1   
    83    37    38 1   
    84    37    89 1   
    85    37    90 1   
    86    38    39 1   
    87    38    91 1   
    88    38    92 1   
    89    39    40 1   
    90    39    93 1   
    91    39    94 1   
    92    40    41 1   
    93    40    95 1   
    94    40    96 1   
    95    41    42 1   
    96    41    97 1   
    97    41    98 1   
    98    42    43 1   
    99    42    99 1   
   100    42   100 1   
   101    43   101 1   
   102    43   102 1   
   103    43   103 1   
@<TRIPOS>SUBSTRUCTURE
     1 J81         1 TEMP              0 ****  ****    0 ROOT
