@<TRIPOS>MOLECULE
J81
  103   103     1     0     0
SMALL
No Charge or Current Charge


@<TRIPOS>ATOM
      1 C9          17.3410    -0.8630     1.5940 c3         1 J81      -0.088100
      2 C8          15.9920    -0.1380     1.7690 c3         1 J81      -0.074400
      3 C7          14.8830    -0.6940     0.8500 c3         1 J81      -0.075400
      4 C6          13.5320     0.0330     1.0250 c3         1 J81      -0.074400
      5 C5          12.4220    -0.5230     0.1060 c3         1 J81      -0.074400
      6 C4          11.0710     0.2050     0.2810 c3         1 J81      -0.074400
      7 C3           9.9610    -0.3520    -0.6380 c3         1 J81      -0.072400
      8 C2           8.6110     0.3770    -0.4640 c3         1 J81      -0.095400
      9 C1           7.5060    -0.1800    -1.3840 c3         1 J81       0.107000
     10 N2           6.2400     0.5380    -1.2230 ns         1 J81      -0.514900
     11 C18          5.3450     0.3350    -0.1970 c          1 J81       0.597100
     12 O            5.5320    -0.4930     0.6830 o          1 J81      -0.601100
     13 C19          4.1120     1.2460    -0.2230 c3         1 J81      -0.158400
     14 C20          2.8420     0.4720    -0.6510 c3         1 J81      -0.061400
     15 C21          1.5780     1.3680    -0.6960 c3         1 J81      -0.111400
     16 C22          0.2920     0.6390    -1.1800 c3         1 J81       0.138300
     17 O3           0.0310    -0.4430    -0.2680 oh         1 J81      -0.644000
     18 C23         -0.9710     1.5750    -1.2920 c3         1 J81       0.128300
     19 O2          -0.6380     2.7800    -2.0140 oh         1 J81      -0.644000
     20 C24         -2.2260     0.9270    -1.9790 c3         1 J81       0.090700
     21 C25         -3.4910     1.8220    -1.8250 c3         1 J81       0.144600
     22 O5          -3.9380     1.7510    -0.4540 os         1 J81      -0.478000
     23 C28         -5.0970     2.5330    -0.1030 c6         1 J81       0.359300
     24 O9          -6.2450     2.1080    -0.8730 os         1 J81      -0.448000
     25 C27         -6.6660     0.7380    -0.6330 c6         1 J81       0.174300
     26 C26         -7.8400     0.3880    -1.6080 c3         1 J81       0.169600
     27 O8          -7.5070     0.5660    -3.0010 oh         1 J81      -0.713000
     28 C31         -7.0570     0.5240     0.8670 c6         1 J81       0.146300
     29 O7          -8.2240     1.2790     1.2560 oh         1 J81      -0.715000
     30 C30         -5.8600     0.9500     1.7660 c6         1 J81       0.140300
     31 O4          -6.2230     0.8660     3.1570 oh         1 J81      -0.674000
     32 C29         -5.3830     2.4000     1.4310 c6         1 J81       0.114300
     33 O6          -4.2140     2.7240     2.2230 oh         1 J81      -0.711000
     34 N1          -2.4870    -0.4440    -1.5120 ns         1 J81      -0.494900
     35 C17         -3.3780    -1.3260    -2.0740 c          1 J81       0.615100
     36 O1          -3.9810    -1.0830    -3.1090 o          1 J81      -0.613100
     37 C10         -3.5370    -2.6480    -1.3180 c3         1 J81      -0.149400
     38 C11         -4.8470    -2.6520    -0.4960 c3         1 J81      -0.062400
     39 C12         -5.0780    -3.9610     0.2880 c3         1 J81      -0.076400
     40 C13         -6.3790    -3.9350     1.1200 c3         1 J81      -0.075400
     41 C14         -6.6180    -5.2400     1.9100 c3         1 J81      -0.075400
     42 C15         -7.9170    -5.2120     2.7430 c3         1 J81      -0.075400
     43 C16         -8.1570    -6.5130     3.5320 c3         1 J81      -0.088100
     44 H1          18.0950    -0.4340     2.2650 hc         1 J81       0.031367
     45 H2          17.2410    -1.9300     1.8270 hc         1 J81       0.031367
     46 H3          17.7030    -0.7650     0.5640 hc         1 J81       0.031367
     47 H4          15.6750    -0.2230     2.8150 hc         1 J81       0.036700
     48 H5          16.1330     0.9310     1.5630 hc         1 J81       0.036700
     49 H6          15.2050    -0.6090    -0.1960 hc         1 J81       0.037700
     50 H7          14.7460    -1.7630     1.0570 hc         1 J81       0.037700
     51 H8          13.2100    -0.0520     2.0710 hc         1 J81       0.036700
     52 H9          13.6680     1.1020     0.8180 hc         1 J81       0.036700
     53 H10         12.7440    -0.4380    -0.9390 hc         1 J81       0.038700
     54 H11         12.2850    -1.5920     0.3140 hc         1 J81       0.038700
     55 H12         10.7490     0.1190     1.3270 hc         1 J81       0.037700
     56 H13         11.2080     1.2730     0.0740 hc         1 J81       0.037700
     57 H14         10.2840    -0.2670    -1.6840 hc         1 J81       0.043200
     58 H15          9.8230    -1.4200    -0.4310 hc         1 J81       0.043200
     59 H16          8.2890     0.2930     0.5810 hc         1 J81       0.041700
     60 H17          8.7470     1.4450    -0.6730 hc         1 J81       0.041700
     61 H18          7.8250    -0.0920    -2.4320 h1         1 J81       0.051200
     62 H19          7.3460    -1.2450    -1.1690 h1         1 J81       0.051200
     63 H20          5.9990     1.2500    -1.9030 hn         1 J81       0.309500
     64 H21          3.9510     1.6460     0.7850 hc         1 J81       0.052700
     65 H22          4.2710     2.0700    -0.9280 hc         1 J81       0.052700
     66 H23          3.0060     0.0320    -1.6430 hc         1 J81       0.062700
     67 H24          2.6840    -0.3630     0.0430 hc         1 J81       0.062700
     68 H25          1.4010     1.8000     0.2980 hc         1 J81       0.047200
     69 H26          1.7910     2.2100    -1.3660 hc         1 J81       0.047200
     70 H27          0.4900     0.2320    -2.1820 h1         1 J81       0.076700
     71 H28          0.3720    -0.1690     0.6110 ho         1 J81       0.436000
     72 H29         -1.2600     1.8400    -0.2650 h1         1 J81       0.082700
     73 H30         -0.2320     2.5180    -2.8690 ho         1 J81       0.439000
     74 H31         -2.0070     0.8570    -3.0530 h1         1 J81       0.081700
     75 H32         -3.2600     2.8570    -2.1090 h1         1 J81       0.051700
     76 H33         -4.2750     1.4610    -2.5030 h1         1 J81       0.051700
     77 H34         -4.8930     3.5910    -0.3280 h2         1 J81       0.069700
     78 H35         -5.8290     0.0690    -0.8790 h1         1 J81       0.051700
     79 H36         -8.1330    -0.6550    -1.4240 h1         1 J81       0.035700
     80 H37         -8.7020     1.0170    -1.3500 h1         1 J81       0.035700
     81 H38         -8.3290     0.4000    -3.5170 ho         1 J81       0.505000
     82 H39         -7.2400    -0.5500     1.0250 h1         1 J81       0.048700
     83 H40         -8.1500     1.3430     2.2390 ho         1 J81       0.521000
     84 H41         -5.0260     0.2620     1.5590 h1         1 J81       0.062700
     85 H42         -5.5320     1.3820     3.6340 ho         1 J81       0.469000
     86 H43         -6.1980     3.0980     1.6730 h1         1 J81       0.063700
     87 H44         -3.4400     2.4010     1.7030 ho         1 J81       0.512000
     88 H45         -1.9650    -0.7700    -0.7050 hn         1 J81       0.312500
     89 H46         -3.5720    -3.4720    -2.0410 hc         1 J81       0.054700
     90 H47         -2.6980    -2.7880    -0.6250 hc         1 J81       0.054700
     91 H48         -4.8250    -1.8140     0.2110 hc         1 J81       0.056200
     92 H49         -5.6970    -2.4820    -1.1700 hc         1 J81       0.056200
     93 H50         -5.1140    -4.8020    -0.4160 hc         1 J81       0.032700
     94 H51         -4.2250    -4.1370     0.9560 hc         1 J81       0.032700
     95 H52         -6.3410    -3.0920     1.8220 hc         1 J81       0.039200
     96 H53         -7.2310    -3.7570     0.4520 hc         1 J81       0.039200
     97 H54         -6.6570    -6.0830     1.2090 hc         1 J81       0.035700
     98 H55         -5.7650    -5.4180     2.5780 hc         1 J81       0.035700
     99 H56         -7.8810    -4.3700     3.4470 hc         1 J81       0.037700
    100 H57         -8.7720    -5.0360     2.0780 hc         1 J81       0.037700
    101 H58         -8.2340    -7.3700     2.8530 hc         1 J81       0.031033
    102 H59         -7.3340    -6.6990     4.2330 hc         1 J81       0.031033
    103 H60         -9.0880    -6.4460     4.1070 hc         1 J81       0.031033
@<TRIPOS>BOND
     1     1     2 1   
     2     1    44 1   
     3     1    45 1   
     4     1    46 1   
     5     2     3 1   
     6     2    47 1   
     7     2    48 1   
     8     3     4 1   
     9     3    49 1   
    10     3    50 1   
    11     4     5 1   
    12     4    51 1   
    13     4    52 1   
    14     5     6 1   
    15     5    53 1   
    16     5    54 1   
    17     6     7 1   
    18     6    55 1   
    19     6    56 1   
    20     7     8 1   
    21     7    57 1   
    22     7    58 1   
    23     8     9 1   
    24     8    59 1   
    25     8    60 1   
    26     9    10 1   
    27     9    61 1   
    28     9    62 1   
    29    10    11 1   
    30    10    63 1   
    31    11    12 2   
    32    11    13 1   
    33    13    14 1   
    34    13    64 1   
    35    13    65 1   
    36    14    15 1   
    37    14    66 1   
    38    14    67 1   
    39    15    16 1   
    40    15    68 1   
    41    15    69 1   
    42    16    17 1   
    43    16    18 1   
    44    16    70 1   
    45    17    71 1   
    46    18    19 1   
    47    18    20 1   
    48    18    72 1   
    49    19    73 1   
    50    20    21 1   
    51    20    34 1   
    52    20    74 1   
    53    21    22 1   
    54    21    75 1   
    55    21    76 1   
    56    22    23 1   
    57    23    24 1   
    58    23    32 1   
    59    23    77 1   
    60    24    25 1   
    61    25    26 1   
    62    25    28 1   
    63    25    78 1   
    64    26    27 1   
    65    26    79 1   
    66    26    80 1   
    67    27    81 1   
    68    28    29 1   
    69    28    30 1   
    70    28    82 1   
    71    29    83 1   
    72    30    31 1   
    73    30    32 1   
    74    30    84 1   
    75    31    85 1   
    76    32    33 1   
    77    32    86 1   
    78    33    87 1   
    79    34    35 1   
    80    34    88 1   
    81    35    36 2   
    82    35    37 1   
    83    37    38 1   
    84    37    89 1   
    85    37    90 1   
    86    38    39 1   
    87    38    91 1   
    88    38    92 1   
    89    39    40 1   
    90    39    93 1   
    91    39    94 1   
    92    40    41 1   
    93    40    95 1   
    94    40    96 1   
    95    41    42 1   
    96    41    97 1   
    97    41    98 1   
    98    42    43 1   
    99    42    99 1   
   100    42   100 1   
   101    43   101 1   
   102    43   102 1   
   103    43   103 1   
@<TRIPOS>SUBSTRUCTURE
     1 J81         1 TEMP              0 ****  ****    0 ROOT
