@<TRIPOS>MOLECULE
J82
   48    51     1     0     0
SMALL
abcg2


@<TRIPOS>ATOM
      1 C1         -27.8310    22.4390    29.9750 cc         1 J82       0.449600
      2 N2         -28.5590    21.9740    31.0280 nh         1 J82      -0.662400
      3 C3         -29.8370    21.2880    30.8190 c6         1 J82       0.182800
      4 C4         -30.7390    21.4770    32.0230 c6         1 J82       0.140600
      5 O5         -30.1010    21.0460    33.2230 os         1 J82      -0.451000
      6 C6         -28.9140    21.7990    33.4420 c6         1 J82       0.140600
      7 C7         -27.9220    21.6470    32.2980 c6         1 J82       0.182800
      8 N8         -28.5400    22.6330    28.8110 nc         1 J82      -0.694300
      9 C9         -27.9140    23.1160    27.7830 cd         1 J82       0.550900
     10 N10        -26.6090    23.4530    27.8070 ns         1 J82      -0.406400
     11 C11        -25.7900    23.2610    28.9310 c          1 J82       0.580200
     12 C12        -26.4720    22.7190    30.0470 cd         1 J82      -0.472200
     13 O13        -24.5900    23.5580    28.8560 o          1 J82      -0.570000
     14 C14        -28.6500    23.3040    26.4910 c3         1 J82      -0.206700
     15 C15        -28.3960    22.1270    25.5480 c          1 J82       0.611100
     16 O16        -27.6950    21.1800    25.8970 o          1 J82      -0.574100
     17 N17        -29.0060    22.1880    24.3390 n          1 J82      -0.226400
     18 C18        -30.7550    22.6550    22.8010 c5         1 J82      -0.035100
     19 C19        -29.8320    23.3260    23.8380 c5         1 J82       0.111700
     20 C20        -29.9890    21.4190    22.4140 ca         1 J82      -0.134300
     21 C21        -28.9920    21.1660    23.3600 ca         1 J82      -0.037000
     22 C22        -28.1580    20.0580    23.2510 ca         1 J82      -0.108000
     23 C23        -28.3460    19.2050    22.1620 ca         1 J82      -0.089000
     24 C24        -29.3330    19.4510    21.2130 ca         1 J82      -0.129000
     25 C25        -30.1630    20.5670    21.3380 ca         1 J82      -0.075000
     26 C26        -28.9500    24.3960    23.2030 c3         1 J82      -0.110100
     27 H12        -25.8850    22.5330    30.9310 ha         1 J82       0.211000
     28 H31C       -30.3150    21.6840    29.9290 h1         1 J82       0.063450
     29 H32C       -29.6510    20.2170    30.6660 h1         1 J82       0.063450
     30 H71C       -27.5310    20.6220    32.2710 h1         1 J82       0.063450
     31 H72C       -27.0930    22.3250    32.4840 h1         1 J82       0.063450
     32 H41C       -31.0230    22.5330    32.1180 h1         1 J82       0.055950
     33 H42C       -31.6410    20.8760    31.9080 h1         1 J82       0.055950
     34 H61C       -29.1710    22.8580    33.5660 h1         1 J82       0.055950
     35 H62C       -28.4680    21.4320    34.3650 h1         1 J82       0.055950
     36 H10        -26.1630    23.8180    26.9750 hn         1 J82       0.330500
     37 H141       -29.7160    23.3700    26.7080 hc         1 J82       0.088700
     38 H142       -28.3460    24.2400    26.0210 hc         1 J82       0.088700
     39 H19        -30.4050    23.7430    24.6620 h1         1 J82       0.060700
     40 H181       -31.7150    22.3840    23.2480 hc         1 J82       0.064200
     41 H182       -30.9540    23.3170    21.9600 hc         1 J82       0.064200
     42 H261       -29.5730    25.2170    22.8440 hc         1 J82       0.048367
     43 H262       -28.2270    24.8000    23.9110 hc         1 J82       0.048367
     44 H263       -28.4050    23.9800    22.3530 hc         1 J82       0.048367
     45 H25        -30.9340    20.7650    20.6040 ha         1 J82       0.115000
     46 H22        -27.3900    19.8670    23.9810 ha         1 J82       0.149000
     47 H23        -27.7040    18.3390    22.0570 ha         1 J82       0.118000
     48 H24        -29.4570    18.7780    20.3740 ha         1 J82       0.116000
@<TRIPOS>BOND
     1     1     2 1   
     2     1     8 1   
     3     1    12 2   
     4     2     3 1   
     5     2     7 1   
     6     3     4 1   
     7     3    28 1   
     8     3    29 1   
     9     4     5 1   
    10     4    32 1   
    11     4    33 1   
    12     5     6 1   
    13     6     7 1   
    14     6    34 1   
    15     6    35 1   
    16     7    30 1   
    17     7    31 1   
    18     8     9 2   
    19     9    10 1   
    20     9    14 1   
    21    10    11 1   
    22    10    36 1   
    23    11    12 1   
    24    11    13 2   
    25    12    27 1   
    26    14    15 1   
    27    14    37 1   
    28    14    38 1   
    29    15    16 2   
    30    15    17 1   
    31    17    19 1   
    32    17    21 1   
    33    18    19 1   
    34    18    20 1   
    35    18    40 1   
    36    18    41 1   
    37    19    26 1   
    38    19    39 1   
    39    20    21 ar  
    40    20    25 ar  
    41    21    22 ar  
    42    22    23 ar  
    43    22    46 1   
    44    23    24 ar  
    45    23    47 1   
    46    24    25 ar  
    47    24    48 1   
    48    25    45 1   
    49    26    42 1   
    50    26    43 1   
    51    26    44 1   
@<TRIPOS>SUBSTRUCTURE
     1 J82         1 TEMP              0 ****  ****    0 ROOT
