@<TRIPOS>MOLECULE
J82
   48    51     1     0     0
SMALL
No Charge or Current Charge


@<TRIPOS>ATOM
      1 C1         -27.6580    22.6360    29.3590 cc         1 J82       0.449600
      2 N2         -28.7730    22.1270    29.9860 nh         1 J82      -0.662400
      3 C3         -29.8300    21.3480    29.2480 c6         1 J82       0.182800
      4 C4         -31.2380    21.5180    29.8870 c6         1 J82       0.140600
      5 O5         -31.1960    21.2320    31.3030 os         1 J82      -0.451000
      6 C6         -30.2950    22.1100    32.0180 c6         1 J82       0.140600
      7 C7         -28.8420    21.9760    31.4770 c6         1 J82       0.182800
      8 N8         -27.8750    23.0440    28.0720 nc         1 J82      -0.694300
      9 C9         -26.8240    23.5390    27.4400 cd         1 J82       0.550900
     10 N10        -25.5870    23.6720    27.9880 ns         1 J82      -0.406400
     11 C11        -25.2880    23.3020    29.2500 c          1 J82       0.580200
     12 C12        -26.4310    22.7520    29.9510 cd         1 J82      -0.472200
     13 O13        -24.1760    23.4210    29.7330 o          1 J82      -0.570000
     14 C14        -26.9910    23.9910    26.0300 c3         1 J82      -0.206700
     15 C15        -27.1120    22.7660    25.1270 c          1 J82       0.611100
     16 O16        -26.0820    22.1750    24.8290 o          1 J82      -0.574100
     17 N17        -28.3880    22.3110    24.6780 n          1 J82      -0.226400
     18 C18        -30.7270    21.8330    24.8950 c5         1 J82      -0.035100
     19 C19        -29.6620    23.0010    25.0490 c5         1 J82       0.111700
     20 C20        -29.9800    20.8210    24.0490 ca         1 J82      -0.134300
     21 C21        -28.6430    21.1350    23.9210 ca         1 J82      -0.037000
     22 C22        -27.7570    20.2800    23.2400 ca         1 J82      -0.108000
     23 C23        -28.2750    19.1180    22.6330 ca         1 J82      -0.089000
     24 C24        -29.6490    18.8130    22.7390 ca         1 J82      -0.129000
     25 C25        -30.5100    19.6640    23.4580 ca         1 J82      -0.075000
     26 C26        -29.9760    24.1710    24.0850 c3         1 J82      -0.110100
     27 H12        -26.2310    22.4290    30.9610 ha         1 J82       0.211000
     28 H31C       -29.9030    21.6460    28.1930 h1         1 J82       0.063450
     29 H32C       -29.5690    20.2800    29.2530 h1         1 J82       0.063450
     30 H71C       -28.4390    20.9960    31.7720 h1         1 J82       0.063450
     31 H72C       -28.2290    22.7420    31.9730 h1         1 J82       0.063450
     32 H41C       -31.5940    22.5470    29.7350 h1         1 J82       0.055950
     33 H42C       -31.9510    20.8360    29.4020 h1         1 J82       0.055950
     34 H61C       -30.6400    23.1480    31.9060 h1         1 J82       0.055950
     35 H62C       -30.3190    21.8580    33.0870 h1         1 J82       0.055950
     36 H10        -24.8280    24.0570    27.4460 hn         1 J82       0.330500
     37 H141       -27.8660    24.6400    25.9780 hc         1 J82       0.088700
     38 H142       -26.1130    24.5660    25.7160 hc         1 J82       0.088700
     39 H19        -29.6600    23.3710    26.0820 h1         1 J82       0.060700
     40 H181       -30.9880    21.4100    25.8710 hc         1 J82       0.064200
     41 H182       -31.6610    22.1710    24.4310 hc         1 J82       0.064200
     42 H261       -30.9330    24.6410    24.3410 hc         1 J82       0.048367
     43 H262       -29.2050    24.9480    24.1230 hc         1 J82       0.048367
     44 H263       -30.0410    23.8220    23.0480 hc         1 J82       0.048367
     45 H25        -31.5670    19.4240    23.5590 ha         1 J82       0.115000
     46 H22        -26.6970    20.5000    23.1550 ha         1 J82       0.149000
     47 H23        -27.6120    18.4500    22.0870 ha         1 J82       0.118000
     48 H24        -30.0420    17.9120    22.2730 ha         1 J82       0.116000
@<TRIPOS>BOND
     1     1     2 1   
     2     1     8 1   
     3     1    12 2   
     4     2     3 1   
     5     2     7 1   
     6     3     4 1   
     7     3    28 1   
     8     3    29 1   
     9     4     5 1   
    10     4    32 1   
    11     4    33 1   
    12     5     6 1   
    13     6     7 1   
    14     6    34 1   
    15     6    35 1   
    16     7    30 1   
    17     7    31 1   
    18     8     9 2   
    19     9    10 1   
    20     9    14 1   
    21    10    11 1   
    22    10    36 1   
    23    11    12 1   
    24    11    13 2   
    25    12    27 1   
    26    14    15 1   
    27    14    37 1   
    28    14    38 1   
    29    15    16 2   
    30    15    17 1   
    31    17    19 1   
    32    17    21 1   
    33    18    19 1   
    34    18    20 1   
    35    18    40 1   
    36    18    41 1   
    37    19    26 1   
    38    19    39 1   
    39    20    21 ar  
    40    20    25 ar  
    41    21    22 ar  
    42    22    23 ar  
    43    22    46 1   
    44    23    24 ar  
    45    23    47 1   
    46    24    25 ar  
    47    24    48 1   
    48    25    45 1   
    49    26    42 1   
    50    26    43 1   
    51    26    44 1   
@<TRIPOS>SUBSTRUCTURE
     1 J82         1 TEMP              0 ****  ****    0 ROOT
