@<TRIPOS>MOLECULE
J84
   26    28     1     0     0
SMALL
No Charge or Current Charge


@<TRIPOS>ATOM
      1 C14         -3.7070    -0.2080     0.0950 cc         1 J84       0.540000
      2 C12         -2.0540     1.0660    -1.3470 cc         1 J84       0.302900
      3 C11         -2.3930     0.1260    -0.3500 cc         1 J84      -0.384500
      4 C01          3.0400    -1.3720    -1.0650 ca         1 J84      -0.101000
      5 C02          1.6880    -1.0370    -1.2560 ca         1 J84      -0.070000
      6 C03          1.0800    -0.0530    -0.4500 ca         1 J84      -0.001200
      7 C04          1.8420     0.5990     0.5460 ca         1 J84       0.130000
      8 C05          3.1930     0.2610     0.7330 ca         1 J84      -0.099000
      9 C06          3.7900    -0.7230    -0.0700 ca         1 J84       0.135000
     10 C10         -1.2360    -0.4020     0.1040 cd         1 J84       0.344000
     11 N09         -0.2600     0.2740    -0.6540 na         1 J84       0.161000
     12 N13         -0.7570     1.1850    -1.5710 nd         1 J84      -0.489800
     13 N15         -4.8290     0.3680    -0.4150 na         1 J84      -0.223700
     14 N16         -5.9370    -0.1320     0.1910 nc         1 J84      -0.211800
     15 N17         -5.4730    -0.9960     1.0530 nd         1 J84      -0.036000
     16 N18         -4.0990    -1.0640     1.0160 nd         1 J84      -0.450000
     17 N19         -1.0000    -1.3630     1.0520 nv         1 J84      -1.068000
     18 Cl07         5.4810    -1.1420     0.1670 cl         1 J84      -0.175000
     19 Cl08         1.1260     1.8420     1.5740 cl         1 J84      -0.157000
     20 H2           3.5070    -2.1320    -1.6860 ha         1 J84       0.143000
     21 H3           1.1110    -1.5400    -2.0300 ha         1 J84       0.143000
     22 H4           3.7770     0.7620     1.5000 ha         1 J84       0.152000
     23 H5          -4.8760     1.0710    -1.1410 hn         1 J84       0.385000
     24 H6          -1.7770    -1.6920     1.6250 hn         1 J84       0.497000
     25 H7          -0.0580    -1.5270     1.4010 hn         1 J84       0.497000
     26 H1          -2.7310     1.6780    -1.9280 h4         1 J84       0.037100
@<TRIPOS>BOND
     1     1     3 1   
     2     1    13 1   
     3     1    16 2   
     4     2     3 1   
     5     2    12 2   
     6     2    26 1   
     7     3    10 2   
     8     4     5 ar  
     9     4     9 ar  
    10     4    20 1   
    11     5     6 ar  
    12     5    21 1   
    13     6     7 ar  
    14     6    11 1   
    15     7     8 ar  
    16     7    19 1   
    17     8     9 ar  
    18     8    22 1   
    19     9    18 1   
    20    10    11 1   
    21    10    17 1   
    22    11    12 1   
    23    13    14 1   
    24    13    23 1   
    25    14    15 2   
    26    15    16 1   
    27    17    24 1   
    28    17    25 1   
@<TRIPOS>SUBSTRUCTURE
     1 J84         1 TEMP              0 ****  ****    0 ROOT
