@<TRIPOS>MOLECULE
J84
   26    28     1     0     0
SMALL
abcg2


@<TRIPOS>ATOM
      1 C14         -3.7540    -0.1590     0.0360 cc         1 J84       0.540000
      2 C12         -1.9680     1.1650    -1.2740 cc         1 J84       0.302900
      3 C11         -2.4290     0.1630    -0.3890 cc         1 J84      -0.384500
      4 C01          3.0720    -1.4240    -0.9620 ca         1 J84      -0.101000
      5 C02          1.7240    -1.1530    -1.1260 ca         1 J84      -0.070000
      6 C03          1.1200    -0.1230    -0.4200 ca         1 J84      -0.001200
      7 C04          1.8780     0.6380     0.4650 ca         1 J84       0.130000
      8 C05          3.2290     0.3880     0.6380 ca         1 J84      -0.099000
      9 C06          3.8090    -0.6450    -0.0830 ca         1 J84       0.135000
     10 C10         -1.2700    -0.4790     0.0430 cd         1 J84       0.344000
     11 N09         -0.2530     0.1430    -0.5870 na         1 J84       0.161000
     12 N13         -0.6690     1.1590    -1.3880 nd         1 J84      -0.489800
     13 N15         -4.8900     0.4380    -0.3370 na         1 J84      -0.223700
     14 N16         -5.9100    -0.1420     0.2850 nc         1 J84      -0.211800
     15 N17         -5.4130    -1.0600     1.0100 nd         1 J84      -0.036000
     16 N18         -4.0870    -1.1090     0.8900 nd         1 J84      -0.450000
     17 N19         -1.1050    -1.5420     0.8570 nv         1 J84      -1.068000
     18 CL07         5.4910    -0.9650     0.1280 cl         1 J84      -0.175000
     19 CL08         1.1260     1.8980     1.3610 cl         1 J84      -0.157000
     20 H2           3.5390    -2.2260    -1.5150 ha         1 J84       0.143000
     21 H3           1.1310    -1.7430    -1.8120 ha         1 J84       0.143000
     22 H4           3.8140     0.9830     1.3250 ha         1 J84       0.152000
     23 H5          -5.0470     1.2090    -0.9700 hn         1 J84       0.385000
     24 H6          -1.9090    -1.7930     1.4140 hn         1 J84       0.497000
     25 H7          -0.2220    -1.6540     1.3290 hn         1 J84       0.497000
     26 H1          -2.5580     1.8830    -1.8250 h4         1 J84       0.037100
@<TRIPOS>BOND
     1     1     3 1   
     2     1    13 1   
     3     1    16 2   
     4     2     3 1   
     5     2    12 2   
     6     2    26 1   
     7     3    10 2   
     8     4     5 ar  
     9     4     9 ar  
    10     4    20 1   
    11     5     6 ar  
    12     5    21 1   
    13     6     7 ar  
    14     6    11 1   
    15     7     8 ar  
    16     7    19 1   
    17     8     9 ar  
    18     8    22 1   
    19     9    18 1   
    20    10    11 1   
    21    10    17 1   
    22    11    12 1   
    23    13    14 1   
    24    13    23 1   
    25    14    15 2   
    26    15    16 1   
    27    17    24 1   
    28    17    25 1   
@<TRIPOS>SUBSTRUCTURE
     1 J84         1 TEMP              0 ****  ****    0 ROOT
