@<TRIPOS>MOLECULE
J86
   32    33     1     0     0
SMALL
abcg2


@<TRIPOS>ATOM
      1 P1         135.1480   113.4440   133.9730 p5         1 J86       1.274500
      2 C1         136.6290   114.4720   133.4170 c3         1 J86      -0.123500
      3 N1         137.7690   113.5640   133.2920 n7         1 J86      -0.853400
      4 O1         135.4110   113.1180   135.4500 o          1 J86      -0.915500
      5 C2         138.9120   114.0750   132.5580 c3         1 J86       0.193100
      6 N2         139.6470   112.4810   134.8540 ns         1 J86      -0.384100
      7 O2         133.9250   114.3360   133.7340 o          1 J86      -0.915500
      8 C3         140.0640   113.0990   132.5530 ca         1 J86      -0.068300
      9 N3         141.8500   110.8960   134.8820 ns         1 J86      -0.391100
     10 O3         135.2260   112.2200   133.0400 o          1 J86      -0.915500
     11 C4         140.4080   112.3800   133.7040 ca         1 J86       0.086600
     12 C5         141.5320   111.5570   133.7090 ca         1 J86      -0.004400
     13 C6         136.9370   115.6210   134.3630 c3         1 J86      -0.045100
     14 C7         140.8370   112.9390   131.4120 ca         1 J86      -0.091000
     15 C8         142.3100   111.4100   132.5670 ca         1 J86      -0.124000
     16 C9         141.9430   112.1000   131.4280 ca         1 J86      -0.031900
     17 C10        139.9050   111.8490   136.0140 c          1 J86       0.493000
     18 C11        141.1610   110.9860   136.0450 c          1 J86       0.470000
     19 BR1        142.9710   111.8920   129.8580 br         1 J86      -0.154100
     20 H1         136.3840   114.8980   132.4280 h1         1 J86       0.002700
     21 H12        137.4210   112.7220   132.8430 hn         1 J86       0.462000
     22 H3         139.2540   114.9940   133.0430 h1         1 J86       0.025700
     23 H2         138.6680   114.3500   131.5220 h1         1 J86       0.025700
     24 H9         138.7300   112.9560   134.6870 hn         1 J86       0.436500
     25 H11        142.6730   110.3050   134.8870 hn         1 J86       0.303500
     26 H6         137.7550   116.2600   134.0210 hc         1 J86       0.004700
     27 H7         136.0590   116.2590   134.4720 hc         1 J86       0.004700
     28 H5         137.1980   115.2420   135.3530 hc         1 J86       0.004700
     29 H8         140.5670   113.4820   130.5150 ha         1 J86       0.125000
     30 H10        143.1770   110.7620   132.5860 ha         1 J86       0.110000
     31 O4         139.2030   111.9230   137.0010 o          1 J86      -0.461000
     32 O5         141.4850   110.4060   137.0590 o          1 J86      -0.541000
@<TRIPOS>BOND
     1     1     2 1   
     2     1     4 1   
     3     1     7 1   
     4     1    10 1   
     5     2     3 1   
     6     2    13 1   
     7     2    20 1   
     8     3     5 1   
     9     3    21 1   
    10     5     8 1   
    11     5    22 1   
    12     5    23 1   
    13     6    11 1   
    14     6    17 1   
    15     6    24 1   
    16     8    11 ar  
    17     8    14 ar  
    18     9    12 1   
    19     9    18 1   
    20     9    25 1   
    21    11    12 ar  
    22    12    15 ar  
    23    13    26 1   
    24    13    27 1   
    25    13    28 1   
    26    14    16 ar  
    27    14    29 1   
    28    15    16 ar  
    29    15    30 1   
    30    16    19 1   
    31    17    18 1   
    32    17    31 2   
    33    18    32 2   
@<TRIPOS>SUBSTRUCTURE
     1 J86         1 TEMP              0 ****  ****    0 ROOT
