@<TRIPOS>MOLECULE
J86
   32    33     1     0     0
SMALL
No Charge or Current Charge


@<TRIPOS>ATOM
      1 P1         134.8160   113.6820   133.6500 p5         1 J86       1.274500
      2 C1         136.5760   114.4250   133.4740 c3         1 J86      -0.123500
      3 N1         137.7330   113.4780   133.2510 n7         1 J86      -0.853400
      4 O1         134.6320   113.1170   135.0210 o          1 J86      -0.915500
      5 C2         138.9140   114.0330   132.5500 c3         1 J86       0.193100
      6 N2         139.8210   112.5820   134.9270 ns         1 J86      -0.384100
      7 O2         133.7980   114.7450   133.3970 o          1 J86      -0.915500
      8 C3         140.0880   113.0530   132.5360 ca         1 J86      -0.068300
      9 N3         142.0500   110.9550   134.9170 ns         1 J86      -0.391100
     10 O3         134.6670   112.5920   132.6380 o          1 J86      -0.915500
     11 C4         140.5160   112.4060   133.7160 ca         1 J86       0.086600
     12 C5         141.6430   111.5610   133.7070 ca         1 J86      -0.004400
     13 C6         136.8920   115.3710   134.6580 c3         1 J86      -0.045100
     14 C7         140.8030   112.8250   131.3410 ca         1 J86      -0.091000
     15 C8         142.3460   111.3400   132.5130 ca         1 J86      -0.124000
     16 C9         141.9200   111.9700   131.3320 ca         1 J86      -0.031900
     17 C10        140.1250   112.0250   136.1510 c          1 J86       0.493000
     18 C11        141.4390   111.0960   136.1530 c          1 J86       0.470000
     19 Br1        142.8770   111.6760   129.7030 br         1 J86      -0.154100
     20 H1         136.4740   115.0480   132.5750 h1         1 J86       0.002700
     21 H12        137.3820   112.6960   132.6750 hn         1 J86       0.462000
     22 H3         139.2550   114.9540   133.0420 h1         1 J86       0.025700
     23 H2         138.6450   114.3000   131.5190 h1         1 J86       0.025700
     24 H9         138.9370   113.0870   134.8490 hn         1 J86       0.436500
     25 H11        142.8760   110.3690   134.8880 hn         1 J86       0.303500
     26 H6         137.8100   115.9440   134.4800 hc         1 J86       0.004700
     27 H7         136.0780   116.0920   134.8010 hc         1 J86       0.004700
     28 H5         137.0160   114.8060   135.5900 hc         1 J86       0.004700
     29 H8         140.4970   113.3180   130.4210 ha         1 J86       0.125000
     30 H10        143.2160   110.6880   132.5000 ha         1 J86       0.110000
     31 O4         139.4330   112.2230   137.1430 o          1 J86      -0.461000
     32 O5         141.8820   110.5410   137.1540 o          1 J86      -0.541000
@<TRIPOS>BOND
     1     1     2 1   
     2     1     4 1   
     3     1     7 1   
     4     1    10 1   
     5     2     3 1   
     6     2    13 1   
     7     2    20 1   
     8     3     5 1   
     9     3    21 1   
    10     5     8 1   
    11     5    22 1   
    12     5    23 1   
    13     6    11 1   
    14     6    17 1   
    15     6    24 1   
    16     8    11 ar  
    17     8    14 ar  
    18     9    12 1   
    19     9    18 1   
    20     9    25 1   
    21    11    12 ar  
    22    12    15 ar  
    23    13    26 1   
    24    13    27 1   
    25    13    28 1   
    26    14    16 ar  
    27    14    29 1   
    28    15    16 ar  
    29    15    30 1   
    30    16    19 1   
    31    17    18 1   
    32    17    31 2   
    33    18    32 2   
@<TRIPOS>SUBSTRUCTURE
     1 J86         1 TEMP              0 ****  ****    0 ROOT
