@<TRIPOS>MOLECULE
J87
   48    51     1     0     0
SMALL
No Charge or Current Charge


@<TRIPOS>ATOM
      1 C10         -4.5380     0.6230    -0.1550 cc         1 J87       0.506900
      2 C13         -8.1540    -0.4780    -0.1990 ca         1 J87      -0.169000
      3 C20          3.6490     1.5940     0.0050 ca         1 J87      -0.201000
      4 C21          4.1850     0.2960     0.0680 ca         1 J87       0.336000
      5 C24          7.5850    -1.3030     0.8320 c6         1 J87       0.146600
      6 C26          7.9190     0.4070    -0.8270 c6         1 J87       0.146600
      7 C28          3.3110    -0.8010     0.0840 ca         1 J87      -0.239000
      8 C01          1.4690    -3.0420     0.1190 c3         1 J87       0.148900
      9 C03          1.9150    -0.6090     0.0430 ca         1 J87       0.159100
     10 C04          1.3800     0.6950    -0.0170 ca         1 J87      -0.118000
     11 N05         -0.0400     0.8300    -0.0560 ns         1 J87      -0.141000
     12 C06         -0.8840     1.9310    -0.1180 c          1 J87       0.653700
     13 C07         -2.3070     1.5590    -0.1380 cc         1 J87      -0.318600
     14 C08         -3.3120     2.4900    -0.1970 cd         1 J87       0.347900
     15 N09         -4.5920     1.9510    -0.2070 nd         1 J87      -0.652000
     16 C11         -5.7470    -0.2080    -0.1530 ca         1 J87      -0.195500
     17 C12         -7.0350     0.3700    -0.2040 ca         1 J87      -0.027000
     18 C14         -7.9610    -1.8660    -0.1420 ca         1 J87       0.348900
     19 N15         -6.7350    -2.4310    -0.0930 nb         1 J87      -0.665000
     20 C16         -5.6560    -1.6140    -0.0980 ca         1 J87       0.352900
     21 S17         -2.9290    -0.0680    -0.0910 ss         1 J87      -0.005400
     22 O18         -0.5070     3.0950    -0.1530 o          1 J87      -0.576100
     23 C19          2.2610     1.7980    -0.0360 ca         1 J87      -0.031000
     24 N22          5.5810     0.0790     0.1090 nh         1 J87      -0.786400
     25 C23          6.1860    -0.7330     1.2160 c6         1 J87       0.160800
     26 O25          8.4530    -0.2530     0.3450 os         1 J87      -0.443000
     27 C27          6.5350     1.0540    -0.5150 c6         1 J87       0.160800
     28 H131        -9.1600    -0.0700    -0.2380 ha         1 J87       0.129000
     29 H201         4.3060     2.4580    -0.0000 ha         1 J87       0.120000
     30 H241         8.0490    -1.7760     1.7100 h1         1 J87       0.054200
     31 H242         7.4740    -2.0700     0.0530 h1         1 J87       0.054200
     32 H261         8.6250     1.1810    -1.1590 h1         1 J87       0.054200
     33 H262         7.8120    -0.3270    -1.6380 h1         1 J87       0.054200
     34 H281         3.7350    -1.7980     0.1150 ha         1 J87       0.120000
     35 H011         0.6040    -3.7170     0.1220 h1         1 J87       0.042700
     36 H012         2.0920    -3.2920    -0.7490 h1         1 J87       0.042700
     37 H013         2.0460    -3.2250     1.0340 h1         1 J87       0.042700
     38 H051        -0.5270    -0.0570    -0.0350 hn         1 J87       0.159000
     39 H081        -3.1840     3.5650    -0.2350 h4         1 J87       0.063100
     40 H121        -7.1730     1.4490    -0.2480 ha         1 J87       0.144000
     41 H141        -8.8130    -2.5460    -0.1370 h4         1 J87       0.023100
     42 H161        -4.6940    -2.1220    -0.0570 h4         1 J87       0.020100
     43 H191         1.8940     2.8190    -0.0800 ha         1 J87       0.127000
     44 H232         5.5350    -1.5760     1.4870 h1         1 J87       0.048450
     45 H231         6.2950    -0.1090     2.1160 h1         1 J87       0.048450
     46 H272         6.6900     1.9100     0.1570 h1         1 J87       0.048450
     47 H271         6.1180     1.4450    -1.4550 h1         1 J87       0.048450
     48 O02          1.0310    -1.6730     0.0560 os         1 J87      -0.344100
@<TRIPOS>BOND
     1     1    15 2   
     2     1    16 1   
     3     1    21 1   
     4     2    17 ar  
     5     2    18 ar  
     6     2    28 1   
     7     3     4 ar  
     8     3    23 ar  
     9     3    29 1   
    10     4     7 ar  
    11     4    24 1   
    12     5    25 1   
    13     5    26 1   
    14     5    30 1   
    15     5    31 1   
    16     6    26 1   
    17     6    27 1   
    18     6    32 1   
    19     6    33 1   
    20     7     9 ar  
    21     7    34 1   
    22     8    35 1   
    23     8    36 1   
    24     8    37 1   
    25     8    48 1   
    26     9    10 ar  
    27     9    48 1   
    28    10    11 1   
    29    10    23 ar  
    30    11    12 1   
    31    11    38 1   
    32    12    13 1   
    33    12    22 2   
    34    13    14 2   
    35    13    21 1   
    36    14    15 1   
    37    14    39 1   
    38    16    17 ar  
    39    16    20 ar  
    40    17    40 1   
    41    18    19 ar  
    42    18    41 1   
    43    19    20 ar  
    44    20    42 1   
    45    23    43 1   
    46    24    25 1   
    47    24    27 1   
    48    25    44 1   
    49    25    45 1   
    50    27    46 1   
    51    27    47 1   
@<TRIPOS>SUBSTRUCTURE
     1 J87         1 TEMP              0 ****  ****    0 ROOT
