@<TRIPOS>MOLECULE
J87
   48    51     1     0     0
SMALL
bcc


@<TRIPOS>ATOM
      1 C10         -4.5790     0.4580    -0.3090 cc         1 J87       0.506900
      2 C13         -8.2640     0.2470     0.2310 ca         1 J87      -0.252300
      3 C20          3.4590     1.2920     0.6080 ca         1 J87      -0.219000
      4 C21          4.1850     0.1770     0.1770 ca         1 J87       0.197600
      5 C24          7.7010    -1.0480     0.3090 c6         1 J87       0.123400
      6 C26          7.7440     1.2590     0.2360 c6         1 J87       0.123400
      7 C28          3.4710    -0.9310    -0.3080 ca         1 J87      -0.257000
      8 C01          1.9990    -3.1220    -1.2650 c3         1 J87       0.125700
      9 C03          2.0860    -0.9250    -0.3650 ca         1 J87       0.159100
     10 C04          1.3700     0.1980     0.0760 ca         1 J87      -0.025400
     11 N05         -0.0410     0.1920     0.0290 ns         1 J87      -0.467100
     12 C06         -0.7510     1.0310    -0.7560 c          1 J87       0.720700
     13 C07         -2.2220     0.8960    -0.6920 cc         1 J87      -0.239000
     14 C08         -3.1000     1.5490    -1.5080 cd         1 J87       0.413200
     15 N09         -4.4110     1.2980    -1.2880 nd         1 J87      -0.652000
     16 C11         -5.8870     0.0160     0.1620 ca         1 J87      -0.260800
     17 C12         -7.0410     0.6880    -0.2380 ca         1 J87      -0.045000
     18 C14         -8.2960    -0.8490     1.0820 ca         1 J87       0.414200
     19 N15         -7.2040    -1.5030     1.4640 nb         1 J87      -0.665000
     20 C16         -6.0350    -1.0800     1.0120 ca         1 J87       0.418200
     21 S17         -3.1070    -0.0740     0.4200 ss         1 J87      -0.150300
     22 O18         -0.2470     1.8730    -1.4780 o          1 J87      -0.576100
     23 C19          2.0730     1.2860     0.5540 ca         1 J87      -0.049000
     24 N22          5.5760     0.1510     0.1850 nh         1 J87      -0.648000
     25 C23          6.2310    -1.0550     0.6780 c6         1 J87       0.160800
     26 O25          8.3510     0.1100     0.7780 os         1 J87      -0.396600
     27 C27          6.2740     1.3520     0.6030 c6         1 J87       0.160800
     28 H131        -9.1810     0.7460    -0.0490 ha         1 J87       0.147000
     29 H201         3.9510     2.1630     1.0140 ha         1 J87       0.138000
     30 H241         8.1940    -1.9100     0.7600 h1         1 J87       0.054200
     31 H242         7.8030    -1.1310    -0.7820 h1         1 J87       0.054200
     32 H261         8.2710     2.1300     0.6270 h1         1 J87       0.054200
     33 H262         7.8450     1.2660    -0.8590 h1         1 J87       0.054200
     34 H281         4.0140    -1.7870    -0.6820 ha         1 J87       0.138000
     35 H011         1.2160    -3.8080    -1.5790 h1         1 J87       0.042700
     36 H012         2.6610    -2.9320    -2.1130 h1         1 J87       0.042700
     37 H013         2.5760    -3.5870    -0.4620 h1         1 J87       0.042700
     38 H051        -0.5110    -0.5720     0.4920 hn         1 J87       0.325500
     39 H081        -2.8090     2.2270    -2.2970 h4         1 J87       0.063100
     40 H121        -6.9750     1.5420    -0.8970 ha         1 J87       0.162000
     41 H141        -9.2400    -1.2140     1.4690 h4         1 J87       0.023100
     42 H161        -5.1690    -1.6510     1.3340 h4         1 J87       0.020100
     43 H191         1.5290     2.1480     0.9180 ha         1 J87       0.145000
     44 H232         5.7860    -1.9460     0.2390 h1         1 J87       0.048450
     45 H231         6.1180    -1.1390     1.7690 h1         1 J87       0.048450
     46 H272         6.1710     1.5300     1.6840 h1         1 J87       0.048450
     47 H271         5.8590     2.2190     0.0870 h1         1 J87       0.048450
     48 O02          1.3460    -1.9440    -0.8320 os         1 J87      -0.320900
@<TRIPOS>BOND
     1     1    15 2   
     2     1    16 1   
     3     1    21 1   
     4     2    17 ar  
     5     2    18 ar  
     6     2    28 1   
     7     3     4 ar  
     8     3    23 ar  
     9     3    29 1   
    10     4     7 ar  
    11     4    24 1   
    12     5    25 1   
    13     5    26 1   
    14     5    30 1   
    15     5    31 1   
    16     6    26 1   
    17     6    27 1   
    18     6    32 1   
    19     6    33 1   
    20     7     9 ar  
    21     7    34 1   
    22     8    35 1   
    23     8    36 1   
    24     8    37 1   
    25     8    48 1   
    26     9    10 ar  
    27     9    48 1   
    28    10    11 1   
    29    10    23 ar  
    30    11    12 1   
    31    11    38 1   
    32    12    13 1   
    33    12    22 2   
    34    13    14 2   
    35    13    21 1   
    36    14    15 1   
    37    14    39 1   
    38    16    17 ar  
    39    16    20 ar  
    40    17    40 1   
    41    18    19 ar  
    42    18    41 1   
    43    19    20 ar  
    44    20    42 1   
    45    23    43 1   
    46    24    25 1   
    47    24    27 1   
    48    25    44 1   
    49    25    45 1   
    50    27    46 1   
    51    27    47 1   
@<TRIPOS>SUBSTRUCTURE
     1 J87         1 TEMP              0 ****  ****    0 ROOT
