@<TRIPOS>MOLECULE
J8A
   68    73     1     0     0
SMALL
abcg2


@<TRIPOS>ATOM
      1 CAF         -0.8260     4.8850     0.0550 ca         1 J8A      -0.124000
      2 CAG          0.1560     3.9740    -0.3000 ca         1 J8A      -0.078000
      3 CAH         -2.1410     4.4770     0.2070 ca         1 J8A      -0.073000
      4 CAI          3.3250     0.0380    -1.6390 ca         1 J8A      -0.104000
      5 CAJ          4.5240    -0.6480    -1.7550 ca         1 J8A      -0.094000
      6 CAK         -4.9630     3.5560     0.4260 ca         1 J8A      -0.148000
      7 CAL         -6.2520     3.0800     0.5670 ca         1 J8A      -0.035000
      8 CAM         -1.5130     2.2420    -0.3810 ca         1 J8A      -0.019000
      9 CAN          4.3290     1.3610     0.0880 ca         1 J8A      -0.131000
     10 CAO          8.3760    -3.8840     1.0360 c6         1 J8A       0.146800
     11 CAP          6.0430    -4.3280     0.8260 c6         1 J8A       0.146800
     12 CAQ         -9.5940    -4.6200     0.7840 cx         1 J8A      -0.088900
     13 CAR         -9.8400    -4.3970    -0.6580 cx         1 J8A      -0.088900
     14 CAS          8.2850    -2.8590    -0.0860 c6         1 J8A       0.129800
     15 CAT          5.9490    -3.3060    -0.2980 c6         1 J8A       0.129800
     16 CAU          6.8650    -1.2390    -1.1440 c3         1 J8A       0.213100
     17 NAV         -7.6440     1.0330     0.5180 nc         1 J8A      -0.604100
     18 NAW         -4.1090     1.3700     0.0070 nb         1 J8A      -0.626000
     19 NAX          7.3620    -4.9220     0.9610 n7         1 J8A      -0.840400
     20 NAY          2.0700     1.8220    -0.4760 ns         1 J8A      -0.144000
     21 NAZ         -8.4870    -1.1150     0.3610 ns         1 J8A      -0.399400
     22 OAA          0.4860     0.6560    -1.6180 o          1 J8A      -0.569100
     23 OAB         -7.3020    -2.9720    -0.1000 o          1 J8A      -0.566100
     24 CBC         -8.3790    -2.4640     0.1500 c          1 J8A       0.642100
     25 CBD          3.2150     1.0530    -0.6940 ca         1 J8A      -0.019000
     26 CBE         -0.1890     2.6410    -0.5140 ca         1 J8A      -0.165600
     27 CBF         -2.5070     3.1460    -0.0080 cp         1 J8A      -0.147500
     28 CBG          5.6370    -0.3800    -0.9700 ca         1 J8A      -0.055300
     29 CBH         -3.9030     2.6790     0.1480 cp         1 J8A       0.403500
     30 CBI         -7.4500    -0.2270     0.3170 cd         1 J8A       0.441800
     31 CBJ          5.5180     0.6620    -0.0390 ca         1 J8A      -0.140300
     32 CBK         -6.4630     1.7140     0.4230 ca         1 J8A       0.081400
     33 CBL         -5.3370     0.9300     0.1400 ca         1 J8A       0.333300
     34 CBM         -9.6480    -3.2080     0.2530 cx         1 J8A      -0.251700
     35 CBO          6.6870     1.0950     0.8030 c3         1 J8A       0.355300
     36 NBN          6.9570    -2.2780    -0.1360 n3         1 J8A      -0.711600
     37 SBA         -5.8110    -0.7450    -0.0130 ss         1 J8A      -0.055500
     38 FAC          6.3610     2.0600     1.6710 f          1 J8A      -0.112333
     39 FAD          7.2130     0.1010     1.5220 f          1 J8A      -0.112333
     40 FAE          7.6790     1.5920     0.0430 f          1 J8A      -0.112333
     41 H1          -0.5670     5.9230     0.2130 ha         1 J8A       0.120000
     42 H2           1.1720     4.3230    -0.4330 ha         1 J8A       0.115000
     43 H3          -2.8750     5.2170     0.4950 ha         1 J8A       0.115000
     44 H4           2.5010    -0.2270    -2.2810 ha         1 J8A       0.153000
     45 H5           4.5910    -1.4390    -2.4920 ha         1 J8A       0.118000
     46 H6          -4.7930     4.6170     0.5290 ha         1 J8A       0.124000
     47 H7          -7.0740     3.7510     0.7800 ha         1 J8A       0.136000
     48 H8          -1.7800     1.2100    -0.5610 ha         1 J8A       0.159000
     49 H9           4.2450     2.1680     0.8040 ha         1 J8A       0.127000
     50 H11          8.2670    -3.3670     1.9950 h1         1 J8A       0.060450
     51 H12          5.7880    -3.8400     1.7710 h1         1 J8A       0.060450
     52 H13          5.3070    -5.1180     0.6640 h1         1 J8A       0.060450
     53 H14        -10.4200    -4.9240     1.4130 hc         1 J8A       0.086200
     54 H15         -8.6260    -4.9960     1.0880 hc         1 J8A       0.086200
     55 H16         -9.0430    -4.6190    -1.3560 hc         1 J8A       0.086200
     56 H17        -10.8390    -4.5440    -1.0450 hc         1 J8A       0.086200
     57 H18          9.0170    -2.0650     0.0880 h1         1 J8A       0.034200
     58 H19          8.5580    -3.3410    -1.0430 h1         1 J8A       0.034200
     59 H20          6.0490    -3.8240    -1.2720 h1         1 J8A       0.034200
     60 H21          4.9560    -2.8510    -0.2870 h1         1 J8A       0.034200
     61 H22          6.8420    -1.6620    -2.1630 h1         1 J8A       0.043700
     62 H23          7.7730    -0.6370    -1.0980 h1         1 J8A       0.043700
     63 H24          7.5430    -5.5020     0.1480 hn         1 J8A       0.397000
     64 H26          2.1870     2.5650     0.1950 hn         1 J8A       0.157000
     65 H27         -9.3920    -0.7130     0.5660 hn         1 J8A       0.342500
     66 H28        -10.5300    -2.6270     0.4930 hc         1 J8A       0.093700
     67 CBB          0.8090     1.6090    -0.9330 c          1 J8A       0.623700
     68 H10          9.3650    -4.3460     1.0320 h1         1 J8A       0.060450
@<TRIPOS>BOND
     1     1     2 ar  
     2     1     3 ar  
     3     1    41 1   
     4     2    26 ar  
     5     2    42 1   
     6     3    27 ar  
     7     3    43 1   
     8     4     5 ar  
     9     4    25 ar  
    10     4    44 1   
    11     5    28 ar  
    12     5    45 1   
    13     6     7 ar  
    14     6    29 ar  
    15     6    46 1   
    16     7    32 ar  
    17     7    47 1   
    18     8    26 ar  
    19     8    27 ar  
    20     8    48 1   
    21     9    25 ar  
    22     9    31 ar  
    23     9    49 1   
    24    10    14 1   
    25    10    19 1   
    26    10    50 1   
    27    10    68 1   
    28    11    15 1   
    29    11    19 1   
    30    11    51 1   
    31    11    52 1   
    32    12    13 1   
    33    12    34 1   
    34    12    53 1   
    35    12    54 1   
    36    13    34 1   
    37    13    55 1   
    38    13    56 1   
    39    14    36 1   
    40    14    57 1   
    41    14    58 1   
    42    15    36 1   
    43    15    59 1   
    44    15    60 1   
    45    16    28 1   
    46    16    36 1   
    47    16    61 1   
    48    16    62 1   
    49    17    30 2   
    50    17    32 1   
    51    18    29 ar  
    52    18    33 ar  
    53    19    63 1   
    54    20    25 1   
    55    20    64 1   
    56    20    67 1   
    57    21    24 1   
    58    21    30 1   
    59    21    65 1   
    60    22    67 2   
    61    23    24 2   
    62    24    34 1   
    63    26    67 1   
    64    27    29 1   
    65    28    31 ar  
    66    30    37 1   
    67    31    35 1   
    68    32    33 ar  
    69    33    37 1   
    70    34    66 1   
    71    35    38 1   
    72    35    39 1   
    73    35    40 1   
@<TRIPOS>SUBSTRUCTURE
     1 J8A         1 TEMP              0 ****  ****    0 ROOT
