@<TRIPOS>MOLECULE
J8A
   68    73     1     0     0
SMALL
No Charge or Current Charge


@<TRIPOS>ATOM
      1 CAF         -0.8560     4.2220     0.8180 ca         1 J8A      -0.124000
      2 CAG          0.1080     3.2700     0.4540 ca         1 J8A      -0.078000
      3 CAH         -2.2210     3.9050     0.7800 ca         1 J8A      -0.073000
      4 CAI          3.3180    -0.7130    -1.0970 ca         1 J8A      -0.104000
      5 CAJ          4.5550    -1.3170    -1.3610 ca         1 J8A      -0.094000
      6 CAK         -5.1480     3.2560     0.2090 ca         1 J8A      -0.148000
      7 CAL         -6.5040     2.8750     0.1740 ca         1 J8A      -0.035000
      8 CAM         -1.6690     1.6670     0.0150 ca         1 J8A      -0.019000
      9 CAN          4.4730     1.2820    -0.3510 ca         1 J8A      -0.131000
     10 CAO          9.7460    -3.2410     0.6540 c6         1 J8A       0.146800
     11 CAP          7.5450    -3.7020     1.6400 c6         1 J8A       0.146800
     12 CAQ        -11.0880    -4.0620    -0.5100 cx         1 J8A      -0.088900
     13 CAR        -11.5030    -2.6600    -0.8900 cx         1 J8A      -0.088900
     14 CAS          9.0540    -2.6040    -0.5940 c6         1 J8A       0.129800
     15 CAT          6.8500    -3.0620     0.3940 c6         1 J8A       0.129800
     16 CAU          7.0730    -1.3850    -1.4430 c3         1 J8A       0.213100
     17 NAV         -8.0990     0.9880     0.2360 nc         1 J8A      -0.604100
     18 NAW         -4.4420     0.9540     0.4000 nb         1 J8A      -0.626000
     19 NAX          8.8870    -4.2670     1.3140 n7         1 J8A      -0.840400
     20 NAY          2.0560     1.2860    -0.2900 ns         1 J8A      -0.144000
     21 NAZ         -9.1080    -1.0940     0.3320 ns         1 J8A      -0.399400
     22 OAA          0.3510    -0.2070    -0.7070 o          1 J8A      -0.569100
     23 OAB         -8.3420    -3.2510     0.5330 o          1 J8A      -0.566100
     24 CBC         -9.2600    -2.4530     0.4210 c          1 J8A       0.642100
     25 CBD          3.2670     0.5970    -0.5840 ca         1 J8A      -0.019000
     26 CBE         -0.2880     1.9730     0.0470 ca         1 J8A      -0.165600
     27 CBF         -2.6630     2.6200     0.3740 cp         1 J8A      -0.147500
     28 CBG          5.7680    -0.6400    -1.1210 ca         1 J8A      -0.055300
     29 CBH         -4.1280     2.2710     0.3310 cp         1 J8A       0.403500
     30 CBI         -7.9650    -0.3390     0.3330 cd         1 J8A       0.441800
     31 CBJ          5.7340     0.6890    -0.6090 ca         1 J8A      -0.140300
     32 CBK         -6.8050     1.5090     0.2580 ca         1 J8A       0.081400
     33 CBL         -5.7490     0.6160     0.3670 ca         1 J8A       0.333300
     34 CBM        -10.7020    -2.8940     0.3780 cx         1 J8A      -0.251700
     35 CBO          7.0260     1.4950    -0.3440 c3         1 J8A       0.355300
     36 NBN          7.7110    -2.0350    -0.2710 n3         1 J8A      -0.711600
     37 SBA         -6.3180    -1.0330     0.4530 ss         1 J8A      -0.055500
     38 FAC          6.7870     2.7190     0.1830 f          1 J8A      -0.112333
     39 FAD          7.8530     0.8730     0.5250 f          1 J8A      -0.112333
     40 FAE          7.7270     1.7090    -1.4810 f          1 J8A      -0.112333
     41 H1          -0.5410     5.2140     1.1350 ha         1 J8A       0.120000
     42 H2           1.1550     3.5600     0.4970 ha         1 J8A       0.115000
     43 H3          -2.9350     4.6650     1.0870 ha         1 J8A       0.115000
     44 H4           2.4170    -1.2810    -1.3010 ha         1 J8A       0.153000
     45 H5           4.5720    -2.3310    -1.7560 ha         1 J8A       0.118000
     46 H6          -4.8930     4.3070     0.1270 ha         1 J8A       0.124000
     47 H7          -7.2950     3.6160     0.0800 ha         1 J8A       0.136000
     48 H8          -1.9810     0.6740    -0.3020 ha         1 J8A       0.159000
     49 H9           4.4180     2.2960     0.0390 ha         1 J8A       0.127000
     50 H11          9.9780    -2.4420     1.3750 h1         1 J8A       0.060450
     51 H12          7.6540    -2.9300     2.4170 h1         1 J8A       0.060450
     52 H13          6.8980    -4.4900     2.0530 h1         1 J8A       0.060450
     53 H14        -11.8600    -4.7400    -0.1530 hc         1 J8A       0.086200
     54 H15        -10.3110    -4.5370    -1.1060 hc         1 J8A       0.086200
     55 H16        -11.0060    -2.2040    -1.7430 hc         1 J8A       0.086200
     56 H17        -12.5540    -2.4000    -0.7870 hc         1 J8A       0.086200
     57 H18          9.7120    -1.8190    -0.9960 h1         1 J8A       0.034200
     58 H19          8.9590    -3.3740    -1.3750 h1         1 J8A       0.034200
     59 H20          6.5960    -3.8600    -0.3190 h1         1 J8A       0.034200
     60 H21          5.9020    -2.6130     0.7250 h1         1 J8A       0.034200
     61 H22          6.8610    -2.1440    -2.2090 h1         1 J8A       0.043700
     62 H23          7.7770    -0.6870    -1.9100 h1         1 J8A       0.043700
     63 H24          8.7480    -5.0340     0.6450 hn         1 J8A       0.397000
     64 H26          2.1990     2.2340     0.0260 hn         1 J8A       0.157000
     65 H27         -9.9790    -0.5920     0.2540 hn         1 J8A       0.342500
     66 H28        -11.2330    -2.8040     1.3220 hc         1 J8A       0.093700
     67 CBB          0.7190     0.9080    -0.3550 c          1 J8A       0.623700
     68 H10         10.7020    -3.6940     0.3510 h1         1 J8A       0.060450
@<TRIPOS>BOND
     1     1     2 ar  
     2     1     3 ar  
     3     1    41 1   
     4     2    26 ar  
     5     2    42 1   
     6     3    27 ar  
     7     3    43 1   
     8     4     5 ar  
     9     4    25 ar  
    10     4    44 1   
    11     5    28 ar  
    12     5    45 1   
    13     6     7 ar  
    14     6    29 ar  
    15     6    46 1   
    16     7    32 ar  
    17     7    47 1   
    18     8    26 ar  
    19     8    27 ar  
    20     8    48 1   
    21     9    25 ar  
    22     9    31 ar  
    23     9    49 1   
    24    10    14 1   
    25    10    19 1   
    26    10    50 1   
    27    10    68 1   
    28    11    15 1   
    29    11    19 1   
    30    11    51 1   
    31    11    52 1   
    32    12    13 1   
    33    12    34 1   
    34    12    53 1   
    35    12    54 1   
    36    13    34 1   
    37    13    55 1   
    38    13    56 1   
    39    14    36 1   
    40    14    57 1   
    41    14    58 1   
    42    15    36 1   
    43    15    59 1   
    44    15    60 1   
    45    16    28 1   
    46    16    36 1   
    47    16    61 1   
    48    16    62 1   
    49    17    30 2   
    50    17    32 1   
    51    18    29 ar  
    52    18    33 ar  
    53    19    63 1   
    54    20    25 1   
    55    20    64 1   
    56    20    67 1   
    57    21    24 1   
    58    21    30 1   
    59    21    65 1   
    60    22    67 2   
    61    23    24 2   
    62    24    34 1   
    63    26    67 1   
    64    27    29 1   
    65    28    31 ar  
    66    30    37 1   
    67    31    35 1   
    68    32    33 ar  
    69    33    37 1   
    70    34    66 1   
    71    35    38 1   
    72    35    39 1   
    73    35    40 1   
@<TRIPOS>SUBSTRUCTURE
     1 J8A         1 TEMP              0 ****  ****    0 ROOT
