@<TRIPOS>MOLECULE
J8D
   34    36     1     0     0
SMALL
bcc


@<TRIPOS>ATOM
      1 C01         -6.5330     0.5590     0.1500 c3         1 J8D       0.132700
      2 O6          -5.5660    -0.4390    -0.1270 os         1 J8D      -0.338900
      3 C13         -4.2660    -0.1090    -0.0900 ca         1 J8D       0.075100
      4 C12         -3.3790    -1.1580    -0.3990 ca         1 J8D       0.112100
      5 C11         -2.0180    -0.9300    -0.3930 ca         1 J8D      -0.102000
      6 O5          -3.8330    -2.3870    -0.7070 oh         1 J8D      -0.492100
      7 C14         -3.7600     1.1440     0.2220 ca         1 J8D      -0.184000
      8 C15         -2.3900     1.3660     0.2230 ca         1 J8D      -0.091000
      9 C10         -1.5070     0.3380    -0.0900 ca         1 J8D      -0.077800
     10 C9          -0.0650     0.5810    -0.1080 cc         1 J8D       0.226900
     11 O4           0.6520    -0.5470    -0.0090 os         1 J8D      -0.215200
     12 C6           2.0010    -0.5300    -0.0260 ca         1 J8D       0.245100
     13 C1           2.6430    -1.7510     0.0650 ca         1 J8D      -0.318000
     14 C2           4.0360    -1.7530     0.0590 ca         1 J8D       0.243100
     15 O1           4.7380    -2.8870     0.1490 oh         1 J8D      -0.480100
     16 C3           4.7680    -0.5670    -0.0400 ca         1 J8D      -0.264000
     17 C4           4.1040     0.6420    -0.1320 ca         1 J8D       0.282100
     18 O2           4.8020     1.7680    -0.2290 oh         1 J8D      -0.499100
     19 C5           2.6890     0.6790    -0.1250 ca         1 J8D      -0.380600
     20 C7           1.9580     1.9220    -0.2250 c          1 J8D       0.614900
     21 O3           2.5370     3.0180    -0.3180 o          1 J8D      -0.601100
     22 C8           0.5270     1.7930    -0.2230 cd         1 J8D      -0.334200
     23 H1          -7.5040     0.0850     0.0400 h1         1 J8D       0.046700
     24 H2          -6.4360     0.9390     1.1690 h1         1 J8D       0.046700
     25 H3          -6.4600     1.3930    -0.5510 h1         1 J8D       0.046700
     26 H4          -1.3630    -1.7540    -0.6430 ha         1 J8D       0.163000
     27 H5          -4.7970    -2.4080    -0.6740 ho         1 J8D       0.445000
     28 H6          -4.4210     1.9620     0.4750 ha         1 J8D       0.142000
     29 H7          -2.0280     2.3480     0.4940 ha         1 J8D       0.143000
     30 H8           2.0730    -2.6680     0.1450 ha         1 J8D       0.155000
     31 H9           4.1540    -3.6520     0.2080 ho         1 J8D       0.435000
     32 H10          5.8500    -0.5970    -0.0450 ha         1 J8D       0.170000
     33 H11          4.1530     2.5130    -0.2830 ho         1 J8D       0.486000
     34 H12         -0.0780     2.6810    -0.3340 ha         1 J8D       0.166000
@<TRIPOS>BOND
     1     1     2 1   
     2     1    23 1   
     3     1    24 1   
     4     1    25 1   
     5     2     3 1   
     6     3     4 ar  
     7     3     7 ar  
     8     4     5 ar  
     9     4     6 1   
    10     5     9 ar  
    11     5    26 1   
    12     6    27 1   
    13     7     8 ar  
    14     7    28 1   
    15     8     9 ar  
    16     8    29 1   
    17     9    10 1   
    18    10    11 1   
    19    10    22 2   
    20    11    12 1   
    21    12    13 ar  
    22    12    19 ar  
    23    13    14 ar  
    24    13    30 1   
    25    14    15 1   
    26    14    16 ar  
    27    15    31 1   
    28    16    17 ar  
    29    16    32 1   
    30    17    18 1   
    31    17    19 ar  
    32    18    33 1   
    33    19    20 1   
    34    20    21 2   
    35    20    22 1   
    36    22    34 1   
@<TRIPOS>SUBSTRUCTURE
     1 J8D         1 TEMP              0 ****  ****    0 ROOT
