@<TRIPOS>MOLECULE
J8D
   34    36     1     0     0
SMALL
No Charge or Current Charge


@<TRIPOS>ATOM
      1 C01         -6.6240     0.6560     0.4230 c3         1 J8D       0.155900
      2 O6          -5.7060    -0.3110    -0.1240 os         1 J8D      -0.362100
      3 C13         -4.3370    -0.1040    -0.1380 ca         1 J8D       0.075100
      4 C12         -3.5170    -1.1070    -0.6940 ca         1 J8D       0.112100
      5 C11         -2.1230    -0.9470    -0.7320 ca         1 J8D      -0.084000
      6 O5          -4.0850    -2.2430    -1.1990 oh         1 J8D      -0.531100
      7 C14         -3.7420     1.0640     0.3840 ca         1 J8D      -0.166000
      8 C15         -2.3440     1.2220     0.3430 ca         1 J8D      -0.073000
      9 C10         -1.5200     0.2220    -0.2210 ca         1 J8D      -0.077800
     10 C9          -0.0620     0.3750    -0.2620 cc         1 J8D       0.226900
     11 O4           0.7150    -0.7710    -0.2300 os         1 J8D      -0.215200
     12 C6           2.0820    -0.5950    -0.0780 ca         1 J8D       0.245100
     13 C1           2.8330    -1.7480     0.1900 ca         1 J8D      -0.300000
     14 C2           4.2220    -1.6750     0.3250 ca         1 J8D       0.243100
     15 O1           4.9430    -2.7960     0.5900 oh         1 J8D      -0.519100
     16 C3           4.8750    -0.4520     0.1820 ca         1 J8D      -0.246000
     17 C4           4.1380     0.7000    -0.0970 ca         1 J8D       0.282100
     18 O2           4.7900     1.8800    -0.2400 oh         1 J8D      -0.538100
     19 C5           2.7400     0.6360    -0.2290 ca         1 J8D      -0.380600
     20 C7           1.9270     1.8250    -0.5180 c          1 J8D       0.614900
     21 O3           2.4250     2.9210    -0.7360 o          1 J8D      -0.601100
     22 C8           0.5020     1.6100    -0.4910 cd         1 J8D      -0.384200
     23 H1          -7.6560     0.2940     0.3320 h1         1 J8D       0.046700
     24 H2          -6.4180     0.8320     1.4860 h1         1 J8D       0.046700
     25 H3          -6.5500     1.6100    -0.1140 h1         1 J8D       0.046700
     26 H4          -1.5120    -1.7330    -1.1690 ha         1 J8D       0.145000
     27 H5          -5.0570    -2.1510    -1.0730 ho         1 J8D       0.484000
     28 H6          -4.3400     1.8550     0.8260 ha         1 J8D       0.124000
     29 H7          -1.9040     2.1220     0.7660 ha         1 J8D       0.125000
     30 H8           2.3200    -2.7000     0.2920 ha         1 J8D       0.137000
     31 H9           4.3180    -3.5480     0.6540 ho         1 J8D       0.474000
     32 H10          5.9540    -0.3950     0.2840 ha         1 J8D       0.152000
     33 H11          4.0840     2.5420    -0.4580 ho         1 J8D       0.525000
     34 H12         -0.0890     2.5020    -0.6470 ha         1 J8D       0.216000
@<TRIPOS>BOND
     1     1     2 1   
     2     1    23 1   
     3     1    24 1   
     4     1    25 1   
     5     2     3 1   
     6     3     4 ar  
     7     3     7 ar  
     8     4     5 ar  
     9     4     6 1   
    10     5     9 ar  
    11     5    26 1   
    12     6    27 1   
    13     7     8 ar  
    14     7    28 1   
    15     8     9 ar  
    16     8    29 1   
    17     9    10 1   
    18    10    11 1   
    19    10    22 2   
    20    11    12 1   
    21    12    13 ar  
    22    12    19 ar  
    23    13    14 ar  
    24    13    30 1   
    25    14    15 1   
    26    14    16 ar  
    27    15    31 1   
    28    16    17 ar  
    29    16    32 1   
    30    17    18 1   
    31    17    19 ar  
    32    18    33 1   
    33    19    20 1   
    34    20    21 2   
    35    20    22 1   
    36    22    34 1   
@<TRIPOS>SUBSTRUCTURE
     1 J8D         1 TEMP              0 ****  ****    0 ROOT
