@<TRIPOS>MOLECULE
J8F
   40    41     1     0     0
SMALL
No Charge or Current Charge


@<TRIPOS>ATOM
      1 C10         31.1290    14.2070     2.2800 ce         1 J8F      -0.040200
      2 N12         33.7700    13.1990     4.3770 n1         1 J8F      -0.473000
      3 C13         30.9260    12.8020     1.8150 ca         1 J8F      -0.161800
      4 C15         30.6760    10.4150     2.2550 ca         1 J8F      -0.212500
      5 C17         30.5310    11.2400    -0.0160 ca         1 J8F      -0.212500
      6 C20         30.8730     7.6720     1.1170 c3         1 J8F       0.216100
      7 C21         27.8520     9.0680    -0.4090 c3         1 J8F       0.133600
      8 C01         31.0140    18.2990     3.9700 ca         1 J8F      -0.068500
      9 C02         30.9570    16.9430     3.6030 ca         1 J8F      -0.110000
     10 C03         32.1260    16.1500     3.5660 ca         1 J8F      -0.006800
     11 C04         33.3590    16.7580     3.9060 ca         1 J8F      -0.110000
     12 C05         33.4170    18.1140     4.2730 ca         1 J8F      -0.068500
     13 C06         32.2450    18.8910     4.3070 ca         1 J8F      -0.021000
     14 C07         32.3040    20.2770     4.6820 cg         1 J8F       0.325000
     15 C09         32.0340    14.7180     3.1690 cf         1 J8F      -0.007900
     16 C11         32.9860    13.8640     3.8210 ch         1 J8F       0.297700
     17 C14         30.8820    11.7250     2.7210 ca         1 J8F      -0.022500
     18 C16         30.5010    10.1580     0.8820 ca         1 J8F       0.374000
     19 C18         30.7370    12.5510     0.4440 ca         1 J8F      -0.022500
     20 C19         29.3000     8.5520    -0.6670 c3         1 J8F       0.224800
     21 N08         32.3450    21.4060     4.9800 n1         1 J8F      -0.452000
     22 N22         30.2920     8.8390     0.4110 nh         1 J8F      -0.806400
     23 O23         27.2340     8.4010     0.7100 oh         1 J8F      -0.660000
     24 H1          30.4660    14.9150     1.7830 ha         1 J8F       0.173000
     25 H2          30.6360     9.6030     2.9730 ha         1 J8F       0.115500
     26 H3          30.4070    11.0700    -1.0800 ha         1 J8F       0.115500
     27 H4          30.1900     7.3170     1.9010 h1         1 J8F       0.042700
     28 H5          31.0610     6.8470     0.4170 h1         1 J8F       0.042700
     29 H6          31.8330     7.9370     1.5800 h1         1 J8F       0.042700
     30 H7          27.8820    10.1530    -0.2370 h1         1 J8F       0.028200
     31 H8          27.2580     8.8990    -1.3160 h1         1 J8F       0.028200
     32 H9          30.0990    18.8870     3.9960 ha         1 J8F       0.126500
     33 H10         29.9900    16.5090     3.3630 ha         1 J8F       0.124000
     34 H11         34.2870    16.1930     3.8750 ha         1 J8F       0.124000
     35 H12         34.3760    18.5610     4.5270 ha         1 J8F       0.126500
     36 H13         30.9910    11.8970     3.7890 ha         1 J8F       0.114000
     37 H14         30.7590    13.3730    -0.2690 ha         1 J8F       0.114000
     38 H15         29.2370     7.4680    -0.8410 h1         1 J8F       0.060700
     39 H16         29.6550     8.9850    -1.6110 h1         1 J8F       0.060700
     40 H17         26.3590     8.8250     0.8500 ho         1 J8F       0.448000
@<TRIPOS>BOND
     1     1     3 1   
     2     1    15 2   
     3     1    24 1   
     4     2    16 3   
     5     3    17 ar  
     6     3    19 ar  
     7     4    17 ar  
     8     4    18 ar  
     9     4    25 1   
    10     5    18 ar  
    11     5    19 ar  
    12     5    26 1   
    13     6    22 1   
    14     6    27 1   
    15     6    28 1   
    16     6    29 1   
    17     7    20 1   
    18     7    23 1   
    19     7    30 1   
    20     7    31 1   
    21     8     9 ar  
    22     8    13 ar  
    23     8    32 1   
    24     9    10 ar  
    25     9    33 1   
    26    10    11 ar  
    27    10    15 1   
    28    11    12 ar  
    29    11    34 1   
    30    12    13 ar  
    31    12    35 1   
    32    13    14 1   
    33    14    21 3   
    34    15    16 1   
    35    17    36 1   
    36    18    22 1   
    37    19    37 1   
    38    20    22 1   
    39    20    38 1   
    40    20    39 1   
    41    23    40 1   
@<TRIPOS>SUBSTRUCTURE
     1 J8F         1 TEMP              0 ****  ****    0 ROOT
