@<TRIPOS>MOLECULE
J8F
   40    41     1     0     0
SMALL
abcg2


@<TRIPOS>ATOM
      1 C10         31.3440    14.1540     2.3290 ce         1 J8F      -0.040200
      2 N12         33.6010    13.2320     4.8500 n1         1 J8F      -0.473000
      3 C13         31.1000    12.8060     1.9010 ca         1 J8F      -0.161800
      4 C15         31.1560    10.3860     2.1000 ca         1 J8F      -0.212500
      5 C17         30.0810    11.3900     0.1940 ca         1 J8F      -0.212500
      6 C20         30.5440     7.8060     1.1780 c3         1 J8F       0.216100
      7 C21         27.8560     8.9370    -0.4770 c3         1 J8F       0.133600
      8 C01         31.1110    18.3080     3.5510 ca         1 J8F      -0.068500
      9 C02         31.0640    16.9520     3.2980 ca         1 J8F      -0.110000
     10 C03         32.1400    16.1190     3.6240 ca         1 J8F      -0.006800
     11 C04         33.2580    16.6920     4.2390 ca         1 J8F      -0.110000
     12 C05         33.3130    18.0460     4.5030 ca         1 J8F      -0.068500
     13 C06         32.2390    18.8640     4.1560 ca         1 J8F      -0.021000
     14 C07         32.2860    20.2630     4.4280 cg         1 J8F       0.325000
     15 C09         32.0930    14.6740     3.3380 cf         1 J8F      -0.007900
     16 C11         32.9140    13.8580     4.1640 ch         1 J8F       0.297700
     17 C14         31.4630    11.6330     2.5860 ca         1 J8F      -0.022500
     18 C16         30.4610    10.2120     0.8790 ca         1 J8F       0.374000
     19 C18         30.3940    12.6290     0.6970 ca         1 J8F      -0.022500
     20 C19         29.3400     8.7840    -0.7600 c3         1 J8F       0.224800
     21 N08         32.3230    21.3930     4.6480 n1         1 J8F      -0.452000
     22 N22         30.1820     8.9750     0.4050 nh         1 J8F      -0.806400
     23 O23         27.4750     7.9680     0.4700 oh         1 J8F      -0.660000
     24 H1          30.8430    14.8920     1.7110 ha         1 J8F       0.173000
     25 H2          31.4530     9.5290     2.6880 ha         1 J8F       0.115500
     26 H3          29.5350    11.3450    -0.7360 ha         1 J8F       0.115500
     27 H4          30.0270     7.7670     2.1400 h1         1 J8F       0.042700
     28 H5          30.2800     6.9130     0.6210 h1         1 J8F       0.042700
     29 H6          31.6190     7.7710     1.3660 h1         1 J8F       0.042700
     30 H7          27.6510     9.9530    -0.1180 h1         1 J8F       0.028200
     31 H8          27.3180     8.8210    -1.4270 h1         1 J8F       0.028200
     32 H9          30.2660    18.9340     3.2960 ha         1 J8F       0.126500
     33 H10         30.1620    16.5410     2.8660 ha         1 J8F       0.124000
     34 H11         34.1090    16.0790     4.5090 ha         1 J8F       0.124000
     35 H12         34.1910    18.4690     4.9730 ha         1 J8F       0.126500
     36 H13         31.9770    11.6800     3.5350 ha         1 J8F       0.114000
     37 H14         30.0770    13.5030     0.1400 ha         1 J8F       0.114000
     38 H15         29.5370     7.7860    -1.1530 h1         1 J8F       0.060700
     39 H16         29.6240     9.4760    -1.5550 h1         1 J8F       0.060700
     40 H17         26.5690     8.1460     0.7400 ho         1 J8F       0.448000
@<TRIPOS>BOND
     1     1     3 1   
     2     1    15 2   
     3     1    24 1   
     4     2    16 3   
     5     3    17 ar  
     6     3    19 ar  
     7     4    17 ar  
     8     4    18 ar  
     9     4    25 1   
    10     5    18 ar  
    11     5    19 ar  
    12     5    26 1   
    13     6    22 1   
    14     6    27 1   
    15     6    28 1   
    16     6    29 1   
    17     7    20 1   
    18     7    23 1   
    19     7    30 1   
    20     7    31 1   
    21     8     9 ar  
    22     8    13 ar  
    23     8    32 1   
    24     9    10 ar  
    25     9    33 1   
    26    10    11 ar  
    27    10    15 1   
    28    11    12 ar  
    29    11    34 1   
    30    12    13 ar  
    31    12    35 1   
    32    13    14 1   
    33    14    21 3   
    34    15    16 1   
    35    17    36 1   
    36    18    22 1   
    37    19    37 1   
    38    20    22 1   
    39    20    38 1   
    40    20    39 1   
    41    23    40 1   
@<TRIPOS>SUBSTRUCTURE
     1 J8F         1 TEMP              0 ****  ****    0 ROOT
