@<TRIPOS>MOLECULE
J8G
   35    37     1     0     0
SMALL
bcc


@<TRIPOS>ATOM
      1 C1          -4.2230    -0.0640     0.0340 ca         1 J8G      -0.377000
      2 C2          -3.3690    -1.1510    -0.0500 ca         1 J8G       0.273100
      3 C3          -1.9670    -0.9690    -0.0960 ca         1 J8G      -0.307600
      4 C4          -1.4960     0.3530    -0.0510 ca         1 J8G       0.242100
      5 C5          -2.3330     1.4510     0.0320 ca         1 J8G      -0.257000
      6 C6          -3.7040     1.2350     0.0750 ca         1 J8G       0.251100
      7 C19          3.1960    -0.4960     0.3550 ca         1 J8G      -0.135000
      8 C18          4.4720     0.0300     0.3180 ca         1 J8G       0.036100
      9 O23          5.5540    -0.5820     0.8480 oh         1 J8G      -0.520100
     10 C17          4.7050     1.2750    -0.2840 ca         1 J8G       0.139100
     11 O24          5.9350     1.8150    -0.3420 oh         1 J8G      -0.492100
     12 C16          3.6350     1.9680    -0.8300 ca         1 J8G      -0.153000
     13 C15          2.3530     1.4440    -0.7870 ca         1 J8G      -0.088000
     14 C14          2.1170     0.2010    -0.2010 ca         1 J8G      -0.048800
     15 C11          0.7610    -0.3450    -0.1590 cc         1 J8G       0.132900
     16 O12         -0.1830     0.6220    -0.0790 os         1 J8G      -0.206200
     17 O29         -4.4660     2.3270     0.1590 os         1 J8G      -0.307900
     18 C01         -5.8770     2.1930     0.2030 c3         1 J8G       0.125700
     19 O30         -3.8420    -2.3970    -0.0890 oh         1 J8G      -0.450100
     20 C9          -1.0090    -2.0480    -0.1940 c          1 J8G       0.578900
     21 O13         -1.2640    -3.2490    -0.2650 o          1 J8G      -0.551100
     22 C10          0.3930    -1.6430    -0.2250 cd         1 J8G      -0.068100
     23 O27          1.2890    -2.6360    -0.3420 oh         1 J8G      -0.484100
     24 H1          -5.2900    -0.2380     0.0690 ha         1 J8G       0.141000
     25 H2          -1.9270     2.4530     0.0660 ha         1 J8G       0.171000
     26 H3           3.0400    -1.4480     0.8460 ha         1 J8G       0.149000
     27 H4           5.3140    -1.4250     1.2470 ho         1 J8G       0.439000
     28 H5           6.5800     1.2430     0.0920 ho         1 J8G       0.446000
     29 H6           3.8140     2.9290    -1.2970 ha         1 J8G       0.151000
     30 H7           1.5460     2.0110    -1.2290 ha         1 J8G       0.146000
     31 H8          -6.2660     1.7060    -0.6940 h1         1 J8G       0.047033
     32 H9          -6.2030     1.6350     1.0840 h1         1 J8G       0.047033
     33 H10         -6.2770     3.2010     0.2590 h1         1 J8G       0.047033
     34 H11         -4.8060    -2.3890    -0.0590 ho         1 J8G       0.430000
     35 H12          0.7790    -3.4630    -0.3730 ho         1 J8G       0.451000
@<TRIPOS>BOND
     1     1     2 ar  
     2     1     6 ar  
     3     1    24 1   
     4     2     3 ar  
     5     2    19 1   
     6     3     4 ar  
     7     3    20 1   
     8     4     5 ar  
     9     4    16 1   
    10     5     6 ar  
    11     5    25 1   
    12     6    17 1   
    13     7     8 ar  
    14     7    14 ar  
    15     7    26 1   
    16     8     9 1   
    17     8    10 ar  
    18     9    27 1   
    19    10    11 1   
    20    10    12 ar  
    21    11    28 1   
    22    12    13 ar  
    23    12    29 1   
    24    13    14 ar  
    25    13    30 1   
    26    14    15 1   
    27    15    16 1   
    28    15    22 2   
    29    17    18 1   
    30    18    31 1   
    31    18    32 1   
    32    18    33 1   
    33    19    34 1   
    34    20    21 2   
    35    20    22 1   
    36    22    23 1   
    37    23    35 1   
@<TRIPOS>SUBSTRUCTURE
     1 J8G         1 TEMP              0 ****  ****    0 ROOT
