@<TRIPOS>MOLECULE
J8G
   35    37     1     0     0
SMALL
No Charge or Current Charge


@<TRIPOS>ATOM
      1 C1          -4.1960    -0.1230     0.1730 ca         1 J8G      -0.359000
      2 C2          -3.3130    -1.1800    -0.0720 ca         1 J8G       0.273100
      3 C3          -1.9590    -0.9260    -0.3730 ca         1 J8G      -0.307600
      4 C4          -1.5010     0.4020    -0.4030 ca         1 J8G       0.242100
      5 C5          -2.3970     1.4540    -0.1780 ca         1 J8G      -0.239000
      6 C6          -3.7380     1.2040     0.1150 ca         1 J8G       0.251100
      7 C19          3.0400    -0.3160     0.5560 ca         1 J8G      -0.117000
      8 C18          4.3670     0.1420     0.6550 ca         1 J8G       0.036100
      9 O23          5.2290    -0.4210     1.5610 oh         1 J8G      -0.559100
     10 C17          4.8100     1.1870    -0.1800 ca         1 J8G       0.139100
     11 O24          6.0970     1.6270    -0.0780 oh         1 J8G      -0.531100
     12 C16          3.9340     1.7730    -1.1040 ca         1 J8G      -0.135000
     13 C15          2.6080     1.3130    -1.2010 ca         1 J8G      -0.070000
     14 C14          2.1520     0.2600    -0.3790 ca         1 J8G      -0.048800
     15 C11          0.7610    -0.1970    -0.4780 cc         1 J8G       0.132900
     16 O12         -0.2060     0.7580    -0.7380 os         1 J8G      -0.206200
     17 O29         -4.5620     2.2860     0.3360 os         1 J8G      -0.331100
     18 C01         -5.9590     2.1390     0.6430 c3         1 J8G       0.148900
     19 O30         -3.8060    -2.4430     0.0060 oh         1 J8G      -0.489100
     20 C9          -0.9610    -1.9930    -0.6480 c          1 J8G       0.578900
     21 O13         -1.2460    -3.1680    -0.8570 o          1 J8G      -0.551100
     22 C10          0.4490    -1.5420    -0.6150 cd         1 J8G      -0.068100
     23 O27          1.3730    -2.5500    -0.6950 oh         1 J8G      -0.523100
     24 H1          -5.2340    -0.3400     0.4040 ha         1 J8G       0.123000
     25 H2          -2.0450     2.4790    -0.2300 ha         1 J8G       0.153000
     26 H3           2.6910    -1.1150     1.2060 ha         1 J8G       0.131000
     27 H4           4.7610    -1.1360     2.0500 ho         1 J8G       0.478000
     28 H5           6.5110     1.0780     0.6260 ho         1 J8G       0.485000
     29 H6           4.2780     2.5810    -1.7430 ha         1 J8G       0.133000
     30 H7           1.9350     1.7740    -1.9210 ha         1 J8G       0.128000
     31 H8          -6.4860     1.6250    -0.1710 h1         1 J8G       0.047033
     32 H9          -6.0970     1.5670     1.5700 h1         1 J8G       0.047033
     33 H10         -6.4240     3.1230     0.7800 h1         1 J8G       0.047033
     34 H11         -4.7570    -2.3790     0.2230 ho         1 J8G       0.469000
     35 H12          0.8700    -3.3940    -0.7990 ho         1 J8G       0.490000
@<TRIPOS>BOND
     1     1     2 ar  
     2     1     6 ar  
     3     1    24 1   
     4     2     3 ar  
     5     2    19 1   
     6     3     4 ar  
     7     3    20 1   
     8     4     5 ar  
     9     4    16 1   
    10     5     6 ar  
    11     5    25 1   
    12     6    17 1   
    13     7     8 ar  
    14     7    14 ar  
    15     7    26 1   
    16     8     9 1   
    17     8    10 ar  
    18     9    27 1   
    19    10    11 1   
    20    10    12 ar  
    21    11    28 1   
    22    12    13 ar  
    23    12    29 1   
    24    13    14 ar  
    25    13    30 1   
    26    14    15 1   
    27    15    16 1   
    28    15    22 2   
    29    17    18 1   
    30    18    31 1   
    31    18    32 1   
    32    18    33 1   
    33    19    34 1   
    34    20    21 2   
    35    20    22 1   
    36    22    23 1   
    37    23    35 1   
@<TRIPOS>SUBSTRUCTURE
     1 J8G         1 TEMP              0 ****  ****    0 ROOT
