@<TRIPOS>MOLECULE
J8H
   65    69     1     0     0
SMALL
abcg2


@<TRIPOS>ATOM
      1 C1          -2.4390     0.8420    -3.0980 c3         1 J8H       0.150900
      2 O2          -3.1320     1.4250    -2.0100 os         1 J8H      -0.356100
      3 C3          -2.9660     0.8820    -0.7950 ca         1 J8H       0.125100
      4 C4          -2.1970    -0.2200    -0.4940 ca         1 J8H      -0.160000
      5 C5          -2.0480    -0.7090     0.8260 ca         1 J8H      -0.032300
      6 C6          -2.6650    -0.0750     1.8800 ca         1 J8H      -0.084000
      7 C7          -3.4610     1.0400     1.5890 ca         1 J8H       0.047400
      8 N8          -4.1820     1.8590     2.4060 nc         1 J8H      -0.236400
      9 N9          -4.7440     2.7560     1.6850 nd         1 J8H      -0.187400
     10 N10         -4.4300     2.5790     0.4100 na         1 J8H       0.073600
     11 C11         -4.9580     3.4660    -0.6010 c3         1 J8H       0.083900
     12 C12         -3.6160     1.5010     0.2850 ca         1 J8H      -0.118200
     13 C13         -1.2880    -1.9970     1.0850 c3         1 J8H       0.033900
     14 C14         -2.2780    -3.1670     1.1060 c3         1 J8H      -0.206400
     15 C15         -1.6300    -4.5260     1.4250 c          1 J8H       0.715000
     16 O16         -2.1120    -5.5270     0.8570 o          1 J8H      -0.729500
     17 O17         -0.7020    -4.5190     2.2580 o          1 J8H      -0.729500
     18 C18         -0.1480    -2.2210     0.1190 ca         1 J8H      -0.021300
     19 C19         -0.3030    -2.9280    -1.0700 ca         1 J8H      -0.074000
     20 C20          0.7720    -3.1220    -1.9210 ca         1 J8H      -0.124000
     21 C21          2.0430    -2.6320    -1.6280 ca         1 J8H      -0.082300
     22 C22          3.1520    -2.9020    -2.6070 c3         1 J8H      -0.040800
     23 C23          2.2100    -1.9130    -0.4370 ca         1 J8H      -0.136300
     24 C24          3.5490    -1.3790     0.0130 c3         1 J8H       0.263100
     25 N25          3.8390     0.0210    -0.3140 n3         1 J8H      -0.754500
     26 C26          4.0470     0.3880    -1.7100 c3         1 J8H       0.176800
     27 C27          2.7990     0.8550    -2.4370 c3         1 J8H       0.127600
     28 O29          2.3800     2.1530    -2.0170 os         1 J8H      -0.369100
     29 C30          1.4950     2.2460    -0.9980 ca         1 J8H       0.200100
     30 C31          0.2830     2.8780    -1.2390 ca         1 J8H      -0.154000
     31 C32         -0.6360     3.0410    -0.2140 ca         1 J8H      -0.042000
     32 C33         -0.3740     2.5430     1.0540 ca         1 J8H      -0.133000
     33 C34          0.8320     1.9140     1.3060 ca         1 J8H       0.009000
     34 C35          1.7690     1.7760     0.2890 ca         1 J8H      -0.321500
     35 S36          3.4030     1.2270     0.7080 sy         1 J8H       1.176600
     36 O37          3.3570     0.6760     2.0540 o          1 J8H      -0.543000
     37 O38          4.2860     2.3500     0.4370 o          1 J8H      -0.543000
     38 C39          1.1150    -1.7210     0.4040 ca         1 J8H      -0.089000
     39 H1B         -2.6920     1.4300    -3.9760 h1         1 J8H       0.041033
     40 H1          -1.3570     0.8740    -2.9470 h1         1 J8H       0.041033
     41 H1A         -2.7450    -0.1930    -3.2640 h1         1 J8H       0.041033
     42 H4          -1.6630    -0.7270    -1.2860 ha         1 J8H       0.127000
     43 H6          -2.5520    -0.4280     2.8970 ha         1 J8H       0.144000
     44 H11         -5.5490     2.9100    -1.3250 h1         1 J8H       0.054700
     45 H11A        -5.5930     4.1940    -0.1050 h1         1 J8H       0.054700
     46 H11B        -4.1560     3.9870    -1.1170 h1         1 J8H       0.054700
     47 H13         -0.8520    -1.9270     2.0840 hc         1 J8H       0.085700
     48 H14A        -3.0220    -2.9620     1.8850 hc         1 J8H       0.026700
     49 H14         -2.8420    -3.2130     0.1710 hc         1 J8H       0.026700
     50 H19         -1.2630    -3.3500    -1.3410 ha         1 J8H       0.135000
     51 H20          0.6250    -3.6900    -2.8320 ha         1 J8H       0.101000
     52 H22          3.2520    -2.0920    -3.3340 hc         1 J8H       0.031367
     53 H22A         4.1250    -3.0330    -2.1360 hc         1 J8H       0.031367
     54 H22B         2.9460    -3.8070    -3.1780 hc         1 J8H       0.031367
     55 H24          3.6430    -1.4960     1.0900 h1         1 J8H       0.072700
     56 H24A         4.3660    -1.9570    -0.4190 h1         1 J8H       0.072700
     57 H26          4.8250     1.1480    -1.7820 h1         1 J8H       0.074200
     58 H26A         4.4410    -0.4920    -2.2150 h1         1 J8H       0.074200
     59 H60          3.0260     0.9440    -3.4990 h1         1 J8H       0.067700
     60 H27          1.9820     0.1350    -2.3220 h1         1 J8H       0.067700
     61 H31          0.0720     3.2520    -2.2330 ha         1 J8H       0.118000
     62 H32         -1.5650     3.5570    -0.4150 ha         1 J8H       0.114000
     63 H33         -1.0970     2.6560     1.8500 ha         1 J8H       0.130000
     64 H34          1.0510     1.5470     2.3000 ha         1 J8H       0.144000
     65 H39          1.2600    -1.1870     1.3370 ha         1 J8H       0.118000
@<TRIPOS>BOND
     1     1     2 1   
     2     1    39 1   
     3     1    40 1   
     4     1    41 1   
     5     2     3 1   
     6     3     4 ar  
     7     3    12 ar  
     8     4     5 ar  
     9     4    42 1   
    10     5     6 ar  
    11     5    13 1   
    12     6     7 ar  
    13     6    43 1   
    14     7     8 1   
    15     7    12 ar  
    16     8     9 2   
    17     9    10 1   
    18    10    11 1   
    19    10    12 1   
    20    11    44 1   
    21    11    45 1   
    22    11    46 1   
    23    13    14 1   
    24    13    18 1   
    25    13    47 1   
    26    14    15 1   
    27    14    48 1   
    28    14    49 1   
    29    15    16 1   
    30    15    17 1   
    31    18    19 ar  
    32    18    38 ar  
    33    19    20 ar  
    34    19    50 1   
    35    20    21 ar  
    36    20    51 1   
    37    21    22 1   
    38    21    23 ar  
    39    22    52 1   
    40    22    53 1   
    41    22    54 1   
    42    23    24 1   
    43    23    38 ar  
    44    24    25 1   
    45    24    55 1   
    46    24    56 1   
    47    25    26 1   
    48    25    35 1   
    49    26    27 1   
    50    26    57 1   
    51    26    58 1   
    52    27    28 1   
    53    27    59 1   
    54    27    60 1   
    55    28    29 1   
    56    29    30 ar  
    57    29    34 ar  
    58    30    31 ar  
    59    30    61 1   
    60    31    32 ar  
    61    31    62 1   
    62    32    33 ar  
    63    32    63 1   
    64    33    34 ar  
    65    33    64 1   
    66    34    35 1   
    67    35    36 2   
    68    35    37 2   
    69    38    65 1   
@<TRIPOS>SUBSTRUCTURE
     1 J8H         1 TEMP              0 ****  ****    0 ROOT
