@<TRIPOS>MOLECULE
J8H
   65    69     1     0     0
SMALL
No Charge or Current Charge


@<TRIPOS>ATOM
      1 C1          -1.9860     1.1100    -3.4080 c3         1 J8H       0.150900
      2 O2          -2.9100     1.5600    -2.4010 os         1 J8H      -0.356100
      3 C3          -2.9330     1.0210    -1.1300 ca         1 J8H       0.125100
      4 C4          -2.0970    -0.0510    -0.7330 ca         1 J8H      -0.160000
      5 C5          -2.1390    -0.5610     0.5970 ca         1 J8H      -0.032300
      6 C6          -3.0260     0.0340     1.5300 ca         1 J8H      -0.084000
      7 C7          -3.8490     1.0880     1.1150 ca         1 J8H       0.047400
      8 N8          -4.7750     1.8110     1.8620 nc         1 J8H      -0.236400
      9 N9          -5.3030     2.7270     1.0480 nd         1 J8H      -0.187400
     10 N10         -4.7050     2.5660    -0.1860 na         1 J8H       0.073600
     11 C11         -5.0230     3.4030    -1.3520 c3         1 J8H       0.083900
     12 C12         -3.7980     1.5480    -0.1610 ca         1 J8H      -0.118200
     13 C13         -1.2340    -1.7180     1.0680 c3         1 J8H       0.033900
     14 C14         -2.0740    -2.9490     1.5290 c3         1 J8H      -0.206400
     15 C15         -1.1730    -4.0190     2.1690 c          1 J8H       0.715000
     16 O16         -0.7770    -4.9400     1.4730 o          1 J8H      -0.729500
     17 O17         -0.8880    -3.8930     3.3500 o          1 J8H      -0.729500
     18 C18         -0.1390    -2.0850     0.0520 ca         1 J8H      -0.021300
     19 C19         -0.4260    -2.8610    -1.0880 ca         1 J8H      -0.074000
     20 C20          0.5870    -3.1810    -2.0030 ca         1 J8H      -0.124000
     21 C21          1.9060    -2.7320    -1.8080 ca         1 J8H      -0.082300
     22 C22          2.9700    -3.1610    -2.8170 c3         1 J8H      -0.040800
     23 C23          2.2070    -1.9270    -0.6760 ca         1 J8H      -0.136300
     24 C24          3.6250    -1.4140    -0.3870 c3         1 J8H       0.263100
     25 N25          3.8820     0.0210    -0.6840 n3         1 J8H      -0.754500
     26 C26          3.5850     0.5130    -2.0500 c3         1 J8H       0.176800
     27 C27          2.1210     0.9190    -2.3400 c3         1 J8H       0.127600
     28 O29          1.7960     2.1300    -1.6310 os         1 J8H      -0.369100
     29 C30          1.2960     2.0670    -0.3550 ca         1 J8H       0.200100
     30 C31         -0.0110     2.5380    -0.1530 ca         1 J8H      -0.154000
     31 C32         -0.5960     2.4970     1.1210 ca         1 J8H      -0.042000
     32 C33          0.1300     1.9780     2.2020 ca         1 J8H      -0.133000
     33 C34          1.4480     1.5310     2.0150 ca         1 J8H       0.009000
     34 C35          2.0440     1.5770     0.7340 ca         1 J8H      -0.321500
     35 S36          3.7820     1.1580     0.5810 sy         1 J8H       1.176600
     36 O37          4.2270     0.4730     1.8000 o          1 J8H      -0.543000
     37 O38          4.5260     2.3320     0.1080 o          1 J8H      -0.543000
     38 C39          1.1800    -1.6310     0.2450 ca         1 J8H      -0.089000
     39 H1B         -2.1260     1.6790    -4.3350 h1         1 J8H       0.041033
     40 H1          -0.9490     1.2510    -3.0760 h1         1 J8H       0.041033
     41 H1A         -2.1420     0.0470    -3.6350 h1         1 J8H       0.041033
     42 H4          -1.4080    -0.4760    -1.4520 ha         1 J8H       0.127000
     43 H6          -3.0690    -0.3080     2.5600 ha         1 J8H       0.144000
     44 H11         -5.3860     2.7700    -2.1690 h1         1 J8H       0.054700
     45 H11A        -5.7980     4.1320    -1.0880 h1         1 J8H       0.054700
     46 H11B        -4.1210     3.9370    -1.6760 h1         1 J8H       0.054700
     47 H13         -0.7260    -1.3550     1.9710 hc         1 J8H       0.085700
     48 H14A        -2.7610    -2.5690     2.2940 hc         1 J8H       0.026700
     49 H14         -2.5940    -3.3460     0.6510 hc         1 J8H       0.026700
     50 H19         -1.4360    -3.2170    -1.2730 ha         1 J8H       0.135000
     51 H20          0.3400    -3.7920    -2.8680 ha         1 J8H       0.101000
     52 H22          3.4150    -2.3020    -3.3270 hc         1 J8H       0.031367
     53 H22A         3.7740    -3.7250    -2.3300 hc         1 J8H       0.031367
     54 H22B         2.5520    -3.8120    -3.5950 hc         1 J8H       0.031367
     55 H24          3.8620    -1.6490     0.6590 h1         1 J8H       0.072700
     56 H24A         4.3410    -2.0110    -0.9630 h1         1 J8H       0.072700
     57 H26          4.2180     1.3820    -2.2780 h1         1 J8H       0.074200
     58 H26A         3.8720    -0.2500    -2.7820 h1         1 J8H       0.074200
     59 H60          2.0350     1.0980    -3.4190 h1         1 J8H       0.067700
     60 H27          1.4250     0.1110    -2.0870 h1         1 J8H       0.067700
     61 H31         -0.5760     2.9320    -0.9930 ha         1 J8H       0.118000
     62 H32         -1.6090     2.8650     1.2690 ha         1 J8H       0.114000
     63 H33         -0.3210     1.9430     3.1910 ha         1 J8H       0.130000
     64 H34          2.0070     1.1710     2.8780 ha         1 J8H       0.144000
     65 H39          1.4150    -1.0490     1.1310 ha         1 J8H       0.118000
@<TRIPOS>BOND
     1     1     2 1   
     2     1    39 1   
     3     1    40 1   
     4     1    41 1   
     5     2     3 1   
     6     3     4 ar  
     7     3    12 ar  
     8     4     5 ar  
     9     4    42 1   
    10     5     6 ar  
    11     5    13 1   
    12     6     7 ar  
    13     6    43 1   
    14     7     8 1   
    15     7    12 ar  
    16     8     9 2   
    17     9    10 1   
    18    10    11 1   
    19    10    12 1   
    20    11    44 1   
    21    11    45 1   
    22    11    46 1   
    23    13    14 1   
    24    13    18 1   
    25    13    47 1   
    26    14    15 1   
    27    14    48 1   
    28    14    49 1   
    29    15    16 1   
    30    15    17 1   
    31    18    19 ar  
    32    18    38 ar  
    33    19    20 ar  
    34    19    50 1   
    35    20    21 ar  
    36    20    51 1   
    37    21    22 1   
    38    21    23 ar  
    39    22    52 1   
    40    22    53 1   
    41    22    54 1   
    42    23    24 1   
    43    23    38 ar  
    44    24    25 1   
    45    24    55 1   
    46    24    56 1   
    47    25    26 1   
    48    25    35 1   
    49    26    27 1   
    50    26    57 1   
    51    26    58 1   
    52    27    28 1   
    53    27    59 1   
    54    27    60 1   
    55    28    29 1   
    56    29    30 ar  
    57    29    34 ar  
    58    30    31 ar  
    59    30    61 1   
    60    31    32 ar  
    61    31    62 1   
    62    32    33 ar  
    63    32    63 1   
    64    33    34 ar  
    65    33    64 1   
    66    34    35 1   
    67    35    36 2   
    68    35    37 2   
    69    38    65 1   
@<TRIPOS>SUBSTRUCTURE
     1 J8H         1 TEMP              0 ****  ****    0 ROOT
