@<TRIPOS>MOLECULE
J8I
   58    60     1     0     0
SMALL
bcc


@<TRIPOS>ATOM
      1 C1          15.5230    26.4720     6.9750 ca         1 J8I      -0.272500
      2 C2          15.0210    26.1590     5.7210 ca         1 J8I      -0.026000
      3 C3          15.7490    25.3150     4.8940 ca         1 J8I      -0.149000
      4 C4          16.9660    24.7780     5.3010 ca         1 J8I      -0.022300
      5 C6          16.7480    25.9680     7.3990 ca         1 J8I      -0.026000
      6 C8          18.8900    24.5610     3.6940 c3         1 J8I       0.175800
      7 C10         19.9070    22.1550     0.9810 c6         1 J8I      -0.089900
      8 C11         21.2900    22.7150     0.6650 c6         1 J8I       0.118700
      9 C12         21.9310    23.2150     1.9510 c6         1 J8I      -0.089900
     10 C13         21.0130    24.2300     2.6200 c6         1 J8I       0.169800
     11 C14         22.0760    21.7210    -1.4270 c          1 J8I       0.676100
     12 C15         22.9660    20.7060    -2.1200 c3         1 J8I      -0.154400
     13 C16         22.8500    20.7460    -3.6340 c3         1 J8I      -0.077100
     14 C17         22.9170    20.8280     0.6680 ca         1 J8I       0.041600
     15 C18         22.3640    19.6200     1.0810 ca         1 J8I      -0.130500
     16 C19         23.1300    18.7160     1.8050 ca         1 J8I      -0.123000
     17 N1          14.0210    26.3620     9.1390 n8         1 J8I      -0.890700
     18 C5          17.4590    25.1290     6.5600 ca         1 J8I      -0.149000
     19 S1          14.5900    27.4970     8.0770 sy         1 J8I       1.266200
     20 O1          15.4870    28.3420     8.8500 o          1 J8I      -0.615800
     21 O2          13.5250    28.1370     7.3170 o          1 J8I      -0.615800
     22 C7          17.7420    23.8460     4.4130 c3         1 J8I      -0.044100
     23 N2          19.7160    23.6510     2.9220 n3         1 J8I      -0.727600
     24 C9          19.0660    23.1970     1.7060 c6         1 J8I       0.169800
     25 N3          22.1340    21.7620    -0.0660 n          1 J8I      -0.412000
     26 O3          21.3500    22.4700    -2.0610 o          1 J8I      -0.598100
     27 C20         24.4500    19.0120     2.1170 ca         1 J8I      -0.125000
     28 C21         25.0030    20.2180     1.7040 ca         1 J8I      -0.123000
     29 C22         24.2380    21.1240     0.9830 ca         1 J8I      -0.130500
     30 H2          14.0710    26.5540     5.3870 ha         1 J8I       0.154500
     31 H3          15.3500    25.0600     3.9190 ha         1 J8I       0.137000
     32 H6          17.1430    26.2140     8.3760 ha         1 J8I       0.154500
     33 H82         19.5250    25.0320     4.4490 h1         1 J8I       0.036200
     34 H81         18.4850    25.3790     3.0750 h1         1 J8I       0.036200
     35 H94         19.3980    21.8580     0.0630 hc         1 J8I       0.055950
     36 H10         20.0000    21.2640     1.6090 hc         1 J8I       0.055950
     37 H11         21.1640    23.5760     0.0050 h1         1 J8I       0.076700
     38 H12         22.1070    22.3910     2.6470 hc         1 J8I       0.055950
     39 H95         22.8970    23.6820     1.7440 hc         1 J8I       0.055950
     40 H13         21.4730    24.5660     3.5520 h1         1 J8I       0.033950
     41 H93         20.9220    25.1210     1.9730 h1         1 J8I       0.033950
     42 H96         22.7240    19.7050    -1.7520 hc         1 J8I       0.060700
     43 H15         24.0030    20.8760    -1.8180 hc         1 J8I       0.060700
     44 H16         23.5160    20.0030    -4.0720 hc         1 J8I       0.041033
     45 H97         21.8380    20.5220    -3.9690 hc         1 J8I       0.041033
     46 H98         23.1290    21.7190    -4.0370 hc         1 J8I       0.041033
     47 H18         21.3390    19.3860     0.8250 ha         1 J8I       0.140000
     48 H19         22.6950    17.7770     2.1210 ha         1 J8I       0.135000
     49 H1          13.7020    26.7900    10.0040 hn         1 J8I       0.416800
     50 H14         13.2850    25.7880     8.7390 hn         1 J8I       0.416800
     51 H5          18.4070    24.7250     6.8950 ha         1 J8I       0.137000
     52 H72         17.0610    23.3920     3.6910 hc         1 J8I       0.059700
     53 H71         18.1640    23.0350     5.0110 hc         1 J8I       0.059700
     54 H92         18.8680    24.0430     1.0220 h1         1 J8I       0.033950
     55 H91         18.0970    22.7590     1.9480 h1         1 J8I       0.033950
     56 H20         25.0470    18.3050     2.6790 ha         1 J8I       0.134000
     57 H21         26.0320    20.4530     1.9430 ha         1 J8I       0.135000
     58 H22         24.6670    22.0640     0.6590 ha         1 J8I       0.140000
@<TRIPOS>BOND
     1     1     2 ar  
     2     1     5 ar  
     3     1    19 1   
     4     2     3 ar  
     5     2    30 1   
     6     3     4 ar  
     7     3    31 1   
     8     4    18 ar  
     9     4    22 1   
    10     5    18 ar  
    11     5    32 1   
    12     6    22 1   
    13     6    23 1   
    14     6    33 1   
    15     6    34 1   
    16     7     8 1   
    17     7    24 1   
    18     7    35 1   
    19     7    36 1   
    20     8     9 1   
    21     8    25 1   
    22     8    37 1   
    23     9    10 1   
    24     9    38 1   
    25     9    39 1   
    26    10    23 1   
    27    10    40 1   
    28    10    41 1   
    29    11    12 1   
    30    11    25 1   
    31    11    26 2   
    32    12    13 1   
    33    12    42 1   
    34    12    43 1   
    35    13    44 1   
    36    13    45 1   
    37    13    46 1   
    38    14    15 ar  
    39    14    25 1   
    40    14    29 ar  
    41    15    16 ar  
    42    15    47 1   
    43    16    27 ar  
    44    16    48 1   
    45    17    19 1   
    46    17    49 1   
    47    17    50 1   
    48    18    51 1   
    49    19    20 2   
    50    19    21 2   
    51    22    52 1   
    52    22    53 1   
    53    23    24 1   
    54    24    54 1   
    55    24    55 1   
    56    27    28 ar  
    57    27    56 1   
    58    28    29 ar  
    59    28    57 1   
    60    29    58 1   
@<TRIPOS>SUBSTRUCTURE
     1 J8I         1 TEMP              0 ****  ****    0 ROOT
