@<TRIPOS>MOLECULE
J8I
   58    60     1     0     0
SMALL
No Charge or Current Charge


@<TRIPOS>ATOM
      1 C1          15.4690    26.4720     7.1860 ca         1 J8I      -0.272500
      2 C2          15.3140    26.6500     5.7950 ca         1 J8I      -0.008000
      3 C3          15.9800    25.7970     4.8980 ca         1 J8I      -0.131000
      4 C4          16.8040    24.7600     5.3760 ca         1 J8I      -0.022300
      5 C6          16.2960    25.4350     7.6670 ca         1 J8I      -0.008000
      6 C8          18.8600    24.4570     3.9150 c3         1 J8I       0.175800
      7 C10         19.9680    22.1370     1.0370 c6         1 J8I      -0.089900
      8 C11         21.3810    22.7200     0.7860 c6         1 J8I       0.118700
      9 C12         21.9940    23.1260     2.1530 c6         1 J8I      -0.089900
     10 C13         21.0690    24.1220     2.8870 c6         1 J8I       0.169800
     11 C14         22.0840    21.7690    -1.4330 c          1 J8I       0.609100
     12 C15         22.8090    20.6690    -2.2440 c3         1 J8I      -0.154400
     13 C16         22.2170    20.3760    -3.6420 c3         1 J8I      -0.077100
     14 C17         23.2100    20.9760     0.6690 ca         1 J8I      -0.051000
     15 C18         22.7920    19.9170     1.5010 ca         1 J8I      -0.112500
     16 C19         23.7330    19.0420     2.0710 ca         1 J8I      -0.105000
     17 N1          13.2470    26.7180     8.6350 n8         1 J8I      -1.001100
     18 C5          16.9580    24.5860     6.7640 ca         1 J8I      -0.131000
     19 S1          14.6220    27.5540     8.3400 sy         1 J8I       1.124600
     20 O1          15.3270    27.5930     9.6220 o          1 J8I      -0.545000
     21 O2          14.1570    28.7560     7.6520 o          1 J8I      -0.545000
     22 C7          17.5270    23.8440     4.3990 c3         1 J8I      -0.044100
     23 N2          19.7100    23.5520     3.0990 n3         1 J8I      -0.727600
     24 C9          19.0850    23.1480     1.8050 c6         1 J8I       0.169800
     25 N3          22.2400    21.7920    -0.0190 n          1 J8I      -0.252400
     26 O3          21.3710    22.5880    -2.0060 o          1 J8I      -0.598100
     27 C20         25.0980    19.1910     1.7810 ca         1 J8I      -0.107000
     28 C21         25.5190    20.2050     0.9050 ca         1 J8I      -0.105000
     29 C22         24.5770    21.0790     0.3360 ca         1 J8I      -0.112500
     30 H2          14.6820    27.4460     5.4030 ha         1 J8I       0.136500
     31 H3          15.8550    25.9440     3.8280 ha         1 J8I       0.119000
     32 H6          16.4260    25.2840     8.7380 ha         1 J8I       0.136500
     33 H82         19.4200    24.7590     4.8110 h1         1 J8I       0.036200
     34 H81         18.6410    25.3750     3.3540 h1         1 J8I       0.036200
     35 H94         19.4860    21.8880     0.0820 hc         1 J8I       0.055950
     36 H10         20.0270    21.2060     1.6110 hc         1 J8I       0.055950
     37 H11         21.2610    23.6510     0.2120 h1         1 J8I       0.076700
     38 H12         22.1430    22.2480     2.7950 hc         1 J8I       0.055950
     39 H95         22.9810    23.5830     2.0020 hc         1 J8I       0.055950
     40 H13         21.5290    24.3780     3.8530 h1         1 J8I       0.033950
     41 H93         21.0060    25.0530     2.3030 h1         1 J8I       0.033950
     42 H96         22.8700    19.7570    -1.6410 hc         1 J8I       0.060700
     43 H15         23.8590    20.9650    -2.3340 hc         1 J8I       0.060700
     44 H16         22.7830    19.5770    -4.1360 hc         1 J8I       0.041033
     45 H97         21.1710    20.0540    -3.5590 hc         1 J8I       0.041033
     46 H98         22.2570    21.2670    -4.2790 hc         1 J8I       0.041033
     47 H18         21.7370    19.7650     1.7090 ha         1 J8I       0.122000
     48 H19         23.4010    18.2400     2.7270 ha         1 J8I       0.117000
     49 H1          12.5450    27.4280     8.4410 hn         1 J8I       0.472000
     50 H14         13.1950    26.0980     7.8310 hn         1 J8I       0.472000
     51 H5          17.5950    23.7920     7.1470 ha         1 J8I       0.119000
     52 H72         16.8770    23.6410     3.5410 hc         1 J8I       0.059700
     53 H71         17.7320    22.8740     4.8690 hc         1 J8I       0.059700
     54 H92         18.9150    24.0320     1.1720 h1         1 J8I       0.033950
     55 H91         18.1060    22.6780     1.9730 h1         1 J8I       0.033950
     56 H20         25.8260    18.5120     2.2190 ha         1 J8I       0.116000
     57 H21         26.5740    20.3100     0.6620 ha         1 J8I       0.117000
     58 H22         24.9150    21.8550    -0.3460 ha         1 J8I       0.122000
@<TRIPOS>BOND
     1     1     2 ar  
     2     1     5 ar  
     3     1    19 1   
     4     2     3 ar  
     5     2    30 1   
     6     3     4 ar  
     7     3    31 1   
     8     4    18 ar  
     9     4    22 1   
    10     5    18 ar  
    11     5    32 1   
    12     6    22 1   
    13     6    23 1   
    14     6    33 1   
    15     6    34 1   
    16     7     8 1   
    17     7    24 1   
    18     7    35 1   
    19     7    36 1   
    20     8     9 1   
    21     8    25 1   
    22     8    37 1   
    23     9    10 1   
    24     9    38 1   
    25     9    39 1   
    26    10    23 1   
    27    10    40 1   
    28    10    41 1   
    29    11    12 1   
    30    11    25 1   
    31    11    26 2   
    32    12    13 1   
    33    12    42 1   
    34    12    43 1   
    35    13    44 1   
    36    13    45 1   
    37    13    46 1   
    38    14    15 ar  
    39    14    25 1   
    40    14    29 ar  
    41    15    16 ar  
    42    15    47 1   
    43    16    27 ar  
    44    16    48 1   
    45    17    19 1   
    46    17    49 1   
    47    17    50 1   
    48    18    51 1   
    49    19    20 2   
    50    19    21 2   
    51    22    52 1   
    52    22    53 1   
    53    23    24 1   
    54    24    54 1   
    55    24    55 1   
    56    27    28 ar  
    57    27    56 1   
    58    28    29 ar  
    59    28    57 1   
    60    29    58 1   
@<TRIPOS>SUBSTRUCTURE
     1 J8I         1 TEMP              0 ****  ****    0 ROOT
