@<TRIPOS>MOLECULE
J8J
   58    63     1     0     0
SMALL
No Charge or Current Charge


@<TRIPOS>ATOM
      1 C4          25.9650    49.8130   -11.3470 ca         1 J8J      -0.079000
      2 C5          26.2970    50.7360   -10.3510 ca         1 J8J       0.107400
      3 C6          27.5920    51.0680   -10.1220 ca         1 J8J      -0.110200
      4 C8          26.2610    52.1840    -8.7460 cc         1 J8J       0.480400
      5 C10         25.8260    53.1050    -7.6820 ca         1 J8J      -0.116900
      6 C13         26.3330    54.7400    -5.9280 ca         1 J8J      -0.114500
      7 C15         26.7620    53.8650    -6.9410 ca         1 J8J      -0.081000
      8 C20         31.9170    46.6580   -13.0110 cy         1 J8J       0.124100
      9 C22         30.5090    45.4300   -13.8870 cy         1 J8J       0.124100
     10 C24         25.5240    48.2650   -13.9780 c          1 J8J       0.633300
     11 C1          26.9990    49.2180   -12.1170 ca         1 J8J      -0.013000
     12 C11         24.4520    53.2470    -7.3780 ca         1 J8J      -0.081000
     13 C12         24.9670    54.8700    -5.6380 ca         1 J8J      -0.095000
     14 C14         24.0270    54.1230    -6.3640 ca         1 J8J      -0.114500
     15 C19         30.5450    46.9790   -13.6860 cy         1 J8J       0.058700
     16 C2          28.3690    49.5500   -11.8380 ca         1 J8J      -0.176600
     17 C25         25.4030    47.0760   -14.8700 cc         1 J8J      -0.303400
     18 C27         26.3590    45.9450   -14.7960 c          1 J8J       0.564200
     19 C29         25.0780    44.8900   -16.5960 cc         1 J8J      -0.016400
     20 C3          28.6550    50.5120   -10.8370 ca         1 J8J      -0.052000
     21 C30         24.1680    45.9240   -16.6700 cd         1 J8J      -0.154200
     22 C31         24.3410    47.0480   -15.7740 cd         1 J8J      -0.020000
     23 C32         23.0410    45.8780   -17.6500 cx         1 J8J      -0.081500
     24 C34         21.6750    46.4370   -17.3200 cx         1 J8J      -0.119400
     25 C35         22.5420    47.1230   -18.3500 cx         1 J8J      -0.119400
     26 N17         29.4990    47.6520   -12.9490 ns         1 J8J      -0.489900
     27 N23         26.6510    48.3230   -13.1700 ns         1 J8J      -0.155000
     28 N28         26.1140    44.9360   -15.6830 ns         1 J8J      -0.343100
     29 N7          27.5910    51.9820    -9.1130 na         1 J8J      -0.304600
     30 N9          25.4380    51.4230    -9.4990 nd         1 J8J      -0.575100
     31 O18         30.5280    49.6680   -12.8590 o          1 J8J      -0.583100
     32 O21         31.9820    45.4610   -13.8670 oq         1 J8J      -0.453000
     33 O26         24.6840    49.1580   -13.9760 o          1 J8J      -0.599100
     34 O33         27.2970    45.8540   -14.0220 o          1 J8J      -0.593000
     35 H37         24.9200    49.5680   -11.5090 ha         1 J8J       0.161000
     36 H41         27.0640    55.3190    -5.3660 ha         1 J8J       0.117000
     37 H43         27.8280    53.7870    -7.1420 ha         1 J8J       0.123000
     38 H47         31.8580    46.3970   -11.9480 h1         1 J8J       0.055950
     39 H49         30.1010    44.8640   -13.0400 h1         1 J8J       0.055950
     40 H48         30.1020    45.0830   -14.8430 h1         1 J8J       0.055950
     41 H39         23.7050    52.6770    -7.9270 ha         1 J8J       0.123000
     42 H40         24.6370    55.5480    -4.8530 ha         1 J8J       0.116000
     43 H42         22.9660    54.2210    -6.1410 ha         1 J8J       0.117000
     44 H45         30.6790    47.5010   -14.6410 h1         1 J8J       0.100700
     45 H52         25.0710    43.9900   -17.2040 h4         1 J8J       0.207000
     46 H36         29.6800    50.8040   -10.6120 ha         1 J8J       0.128000
     47 H53         23.6380    47.8780   -15.8140 ha         1 J8J       0.219000
     48 H54         23.0460    44.9700   -18.2510 hc         1 J8J       0.078700
     49 H56         20.8070    45.8860   -17.6760 hc         1 J8J       0.077700
     50 H55         21.5310    46.9290   -16.3620 hc         1 J8J       0.077700
     51 H57         22.9870    48.0800   -18.0890 hc         1 J8J       0.077700
     52 H58         22.2550    47.0310   -19.3950 hc         1 J8J       0.077700
     53 H44         28.7030    47.1200   -12.6190 hn         1 J8J       0.320500
     54 H50         27.3070    47.5720   -13.3350 hn         1 J8J       0.197000
     55 H51         26.7690    44.1640   -15.6320 hn         1 J8J       0.335500
     56 H38         28.3940    52.4340    -8.6990 hn         1 J8J       0.359000
     57 C16         29.5550    48.9790   -12.5840 c          1 J8J       0.617700
     58 H46         32.7250    47.3710   -13.2120 h1         1 J8J       0.055950
@<TRIPOS>BOND
     1     1     2 ar  
     2     1    11 ar  
     3     1    35 1   
     4     2     3 ar  
     5     2    30 1   
     6     3    20 ar  
     7     3    29 1   
     8     4     5 1   
     9     4    29 1   
    10     4    30 2   
    11     5     7 ar  
    12     5    12 ar  
    13     6     7 ar  
    14     6    13 ar  
    15     6    36 1   
    16     7    37 1   
    17     8    15 1   
    18     8    32 1   
    19     8    38 1   
    20     8    58 1   
    21     9    15 1   
    22     9    32 1   
    23     9    39 1   
    24     9    40 1   
    25    10    17 1   
    26    10    27 1   
    27    10    33 2   
    28    11    16 ar  
    29    11    27 1   
    30    12    14 ar  
    31    12    41 1   
    32    13    14 ar  
    33    13    42 1   
    34    14    43 1   
    35    15    26 1   
    36    15    44 1   
    37    16    20 ar  
    38    16    57 1   
    39    17    18 1   
    40    17    22 2   
    41    18    28 1   
    42    18    34 2   
    43    19    21 2   
    44    19    28 1   
    45    19    45 1   
    46    20    46 1   
    47    21    22 1   
    48    21    23 1   
    49    22    47 1   
    50    23    24 1   
    51    23    25 1   
    52    23    48 1   
    53    24    25 1   
    54    24    49 1   
    55    24    50 1   
    56    25    51 1   
    57    25    52 1   
    58    26    53 1   
    59    26    57 1   
    60    27    54 1   
    61    28    55 1   
    62    29    56 1   
    63    31    57 2   
@<TRIPOS>SUBSTRUCTURE
     1 J8J         1 TEMP              0 ****  ****    0 ROOT
