@<TRIPOS>MOLECULE
J8J
   58    63     1     0     0
SMALL
abcg2


@<TRIPOS>ATOM
      1 C4          25.9200    49.7370   -11.3920 ca         1 J8J      -0.079000
      2 C5          26.2830    50.6650   -10.4190 ca         1 J8J       0.107400
      3 C6          27.6270    51.0040   -10.2190 ca         1 J8J      -0.110200
      4 C8          26.3100    52.1220    -8.8610 cc         1 J8J       0.480400
      5 C10         25.8890    53.0600    -7.8210 ca         1 J8J      -0.116900
      6 C13         26.2970    54.9480    -6.3750 ca         1 J8J      -0.114500
      7 C15         26.7300    54.0710    -7.3570 ca         1 J8J      -0.081000
      8 C20         31.8420    46.3820   -12.4500 cy         1 J8J       0.124100
      9 C22         30.3430    45.3220   -13.3820 cy         1 J8J       0.124100
     10 C24         25.5010    48.1770   -13.9220 c          1 J8J       0.633300
     11 C1          26.9220    49.1570   -12.1610 ca         1 J8J      -0.013000
     12 C11         24.6030    52.9500    -7.2870 ca         1 J8J      -0.081000
     13 C12         25.0200    54.8300    -5.8450 ca         1 J8J      -0.095000
     14 C14         24.1740    53.8280    -6.3060 ca         1 J8J      -0.114500
     15 C19         30.5920    46.8250   -13.2270 cy         1 J8J       0.058700
     16 C2          28.2810    49.4920   -11.9200 ca         1 J8J      -0.176600
     17 C25         25.5090    47.1880   -15.0420 cc         1 J8J      -0.303400
     18 C27         26.6680    46.4030   -15.3930 c          1 J8J       0.564200
     19 C29         25.3310    45.4340   -17.1660 cc         1 J8J      -0.016400
     20 C3          28.6410    50.4250   -10.9610 ca         1 J8J      -0.052000
     21 C30         24.2230    46.1660   -16.8560 cd         1 J8J      -0.154200
     22 C31         24.3530    47.0500   -15.7660 cd         1 J8J      -0.020000
     23 C32         22.9750    46.0250   -17.6410 cx         1 J8J      -0.081500
     24 C34         21.6260    46.1610   -16.9930 cx         1 J8J      -0.119400
     25 C35         22.1060    47.2160   -17.9340 cx         1 J8J      -0.119400
     26 N17         29.5880    47.5810   -12.5430 ns         1 J8J      -0.489900
     27 N23         26.6430    48.2510   -13.1960 ns         1 J8J      -0.155000
     28 N28         26.4730    45.5630   -16.4610 ns         1 J8J      -0.343100
     29 N7          27.6100    51.9370    -9.2190 na         1 J8J      -0.304600
     30 N9          25.4890    51.3750    -9.5580 nd         1 J8J      -0.575100
     31 O18         30.1030    49.5930   -13.4440 o          1 J8J      -0.583100
     32 O21         31.6220    45.0150   -12.8130 oq         1 J8J      -0.453000
     33 O26         24.5080    48.8550   -13.7100 o          1 J8J      -0.599100
     34 O33         27.7700    46.4320   -14.8340 o          1 J8J      -0.593000
     35 H37         24.8810    49.4910   -11.5370 ha         1 J8J       0.161000
     36 H41         26.9590    55.7300    -6.0270 ha         1 J8J       0.117000
     37 H43         27.7240    54.2030    -7.7660 ha         1 J8J       0.123000
     38 H47         31.7690    46.5490   -11.3700 h1         1 J8J       0.055950
     39 H49         29.5120    44.9440   -12.7770 h1         1 J8J       0.055950
     40 H48         30.2340    44.9520   -14.4020 h1         1 J8J       0.055950
     41 H39         23.9440    52.1690    -7.6410 ha         1 J8J       0.123000
     42 H40         24.6830    55.5150    -5.0780 ha         1 J8J       0.116000
     43 H42         23.1770    53.7290    -5.8980 ha         1 J8J       0.117000
     44 H45         30.8280    47.3220   -14.1660 h1         1 J8J       0.100700
     45 H52         25.3600    44.7220   -17.9790 h4         1 J8J       0.207000
     46 H36         29.6810    50.6790   -10.8020 ha         1 J8J       0.128000
     47 H53         23.5060    47.6610   -15.4740 ha         1 J8J       0.219000
     48 H54         23.0440    45.2860   -18.4320 hc         1 J8J       0.078700
     49 H56         20.8420    45.4920   -17.3230 hc         1 J8J       0.077700
     50 H55         21.5900    46.3950   -15.9360 hc         1 J8J       0.077700
     51 H57         22.4050    48.1730   -17.5220 hc         1 J8J       0.077700
     52 H58         21.6550    47.2780   -18.9160 hc         1 J8J       0.077700
     53 H44         29.0660    47.1190   -11.8130 hn         1 J8J       0.320500
     54 H50         27.3920    47.6420   -13.5260 hn         1 J8J       0.197000
     55 H51         27.2680    44.9980   -16.7330 hn         1 J8J       0.335500
     56 H38         28.4220    52.3550    -8.7930 hn         1 J8J       0.359000
     57 C16         29.4050    48.9040   -12.7200 c          1 J8J       0.617700
     58 H46         32.8000    46.7660   -12.8070 h1         1 J8J       0.055950
@<TRIPOS>BOND
     1     1     2 ar  
     2     1    11 ar  
     3     1    35 1   
     4     2     3 ar  
     5     2    30 1   
     6     3    20 ar  
     7     3    29 1   
     8     4     5 1   
     9     4    29 1   
    10     4    30 2   
    11     5     7 ar  
    12     5    12 ar  
    13     6     7 ar  
    14     6    13 ar  
    15     6    36 1   
    16     7    37 1   
    17     8    15 1   
    18     8    32 1   
    19     8    38 1   
    20     8    58 1   
    21     9    15 1   
    22     9    32 1   
    23     9    39 1   
    24     9    40 1   
    25    10    17 1   
    26    10    27 1   
    27    10    33 2   
    28    11    16 ar  
    29    11    27 1   
    30    12    14 ar  
    31    12    41 1   
    32    13    14 ar  
    33    13    42 1   
    34    14    43 1   
    35    15    26 1   
    36    15    44 1   
    37    16    20 ar  
    38    16    57 1   
    39    17    18 1   
    40    17    22 2   
    41    18    28 1   
    42    18    34 2   
    43    19    21 2   
    44    19    28 1   
    45    19    45 1   
    46    20    46 1   
    47    21    22 1   
    48    21    23 1   
    49    22    47 1   
    50    23    24 1   
    51    23    25 1   
    52    23    48 1   
    53    24    25 1   
    54    24    49 1   
    55    24    50 1   
    56    25    51 1   
    57    25    52 1   
    58    26    53 1   
    59    26    57 1   
    60    27    54 1   
    61    28    55 1   
    62    29    56 1   
    63    31    57 2   
@<TRIPOS>SUBSTRUCTURE
     1 J8J         1 TEMP              0 ****  ****    0 ROOT
