@<TRIPOS>MOLECULE
J8L
   45    46     1     0     0
SMALL
No Charge or Current Charge


@<TRIPOS>ATOM
      1 C10         -0.3800    21.0740    15.0440 cg         1 J8L       0.302700
      2 C13         -0.8550    16.8670    14.1410 ca         1 J8L      -0.070500
      3 C15          0.9740    16.5240    15.7060 ca         1 J8L      -0.070500
      4 C17         -0.3590    14.5900    14.9530 cg         1 J8L       0.323000
      5 C20          5.8150    26.1090    14.8580 c3         1 J8L       0.180800
      6 C21          6.1840    26.9930    16.0940 c3         1 J8L       0.169800
      7 C24          4.4560    26.3880    17.8050 c3         1 J8L       0.168100
      8 C01          2.3350    24.4000    14.8050 ca         1 J8L       0.229900
      9 C02          3.7470    24.6000    14.6510 ca         1 J8L       0.593900
     10 C04          4.0140    22.3170    14.5670 ca         1 J8L       0.379900
     11 C05          2.6080    22.1130    14.7220 ca         1 J8L       0.236800
     12 C07          2.0570    20.7360    14.7540 cf         1 J8L      -0.187800
     13 C08          0.7840    20.2420    14.8870 ce         1 J8L       0.047100
     14 C09          0.4720    18.7780    14.8990 ca         1 J8L      -0.021800
     15 C12         -0.5810    18.2460    14.1230 ca         1 J8L      -0.104000
     16 C14         -0.0790    16.0000    14.9340 ca         1 J8L      -0.014000
     17 C16          1.2480    17.9030    15.6870 ca         1 J8L      -0.104000
     18 C23          6.6120    25.1880    17.7640 c3         1 J8L       0.168100
     19 C25          3.5390    27.0860    14.3100 c3         1 J8L       0.205100
     20 N03          4.5930    23.5490    14.5290 nb         1 J8L      -0.742000
     21 N06          1.7570    23.1660    14.8430 nb         1 J8L      -0.584000
     22 N11         -1.3570    21.7030    15.1730 n1         1 J8L      -0.456000
     23 N18         -0.5780    13.4430    14.9650 n1         1 J8L      -0.448000
     24 N22          5.8950    26.4470    17.4590 n3         1 J8L      -0.747600
     25 H1          -1.6700    16.4730    13.5360 ha         1 J8L       0.128000
     26 H2           1.5820    15.8650    16.3240 ha         1 J8L       0.128000
     27 H3           6.3630    25.1650    14.9570 h1         1 J8L       0.068200
     28 H4           6.2430    26.5950    13.9710 h1         1 J8L       0.068200
     29 H5           7.2610    27.1980    16.0250 h1         1 J8L       0.052700
     30 H6           5.6890    27.9670    15.9780 h1         1 J8L       0.052700
     31 H7           4.3280    26.1870    18.8770 h1         1 J8L       0.030700
     32 H8           3.9610    27.3420    17.5810 h1         1 J8L       0.030700
     33 H9           3.9450    25.5910    17.2520 h1         1 J8L       0.030700
     34 H10          1.6560    25.2440    14.9080 h4         1 J8L       0.034100
     35 H11          4.6910    21.4690    14.4700 h4         1 J8L       0.024100
     36 H12          2.8360    19.9820    14.6390 ha         1 J8L       0.180000
     37 H13         -1.1860    18.8960    13.4950 ha         1 J8L       0.125000
     38 H14          2.0610    18.2930    16.2960 ha         1 J8L       0.125000
     39 H15          6.4890    24.9200    18.8220 h1         1 J8L       0.030700
     40 H16          6.2300    24.3580    17.1550 h1         1 J8L       0.030700
     41 H17          7.6870    25.2950    17.5670 h1         1 J8L       0.030700
     42 H18          4.1770    27.9310    14.0170 h1         1 J8L       0.046367
     43 H19          2.8500    26.8890    13.4780 h1         1 J8L       0.046367
     44 H20          2.9560    27.3850    15.1910 h1         1 J8L       0.046367
     45 N19          4.3540    25.8860    14.6080 nh         1 J8L      -0.764300
@<TRIPOS>BOND
     1     1    13 1   
     2     1    22 3   
     3     2    15 ar  
     4     2    16 ar  
     5     2    25 1   
     6     3    16 ar  
     7     3    17 ar  
     8     3    26 1   
     9     4    16 1   
    10     4    23 3   
    11     5     6 1   
    12     5    27 1   
    13     5    28 1   
    14     5    45 1   
    15     6    24 1   
    16     6    29 1   
    17     6    30 1   
    18     7    24 1   
    19     7    31 1   
    20     7    32 1   
    21     7    33 1   
    22     8     9 ar  
    23     8    21 ar  
    24     8    34 1   
    25     9    20 ar  
    26     9    45 1   
    27    10    11 ar  
    28    10    20 ar  
    29    10    35 1   
    30    11    12 1   
    31    11    21 ar  
    32    12    13 2   
    33    12    36 1   
    34    13    14 1   
    35    14    15 ar  
    36    14    17 ar  
    37    15    37 1   
    38    17    38 1   
    39    18    24 1   
    40    18    39 1   
    41    18    40 1   
    42    18    41 1   
    43    19    42 1   
    44    19    43 1   
    45    19    44 1   
    46    19    45 1   
@<TRIPOS>SUBSTRUCTURE
     1 J8L         1 TEMP              0 ****  ****    0 ROOT
