@<TRIPOS>MOLECULE
J8L
   45    46     1     0     0
SMALL
abcg2


@<TRIPOS>ATOM
      1 C10         -0.1650    21.2050    14.6130 cg         1 J8L       0.302700
      2 C13         -0.8880    17.0610    14.2720 ca         1 J8L      -0.070500
      3 C15          1.0620    16.6350    15.6290 ca         1 J8L      -0.070500
      4 C17         -0.3990    14.7810    14.9990 cg         1 J8L       0.323000
      5 C20          5.6910    26.1080    14.8040 c3         1 J8L       0.180800
      6 C21          6.0240    26.9160    16.0660 c3         1 J8L       0.169800
      7 C24          4.4680    26.1950    17.8210 c3         1 J8L       0.168100
      8 C01          2.3640    24.3450    14.6530 ca         1 J8L       0.229900
      9 C02          3.7730    24.5860    14.7230 ca         1 J8L       0.593900
     10 C04          4.0780    22.3420    14.9560 ca         1 J8L       0.379900
     11 C05          2.7080    22.1020    14.8610 ca         1 J8L       0.236800
     12 C07          2.2080    20.7560    14.9180 cf         1 J8L      -0.187800
     13 C08          0.9310    20.3160    14.8190 ce         1 J8L       0.047100
     14 C09          0.5770    18.8850    14.8870 ca         1 J8L      -0.021800
     15 C12         -0.5650    18.4030    14.2410 ca         1 J8L      -0.104000
     16 C14         -0.0710    16.1680    14.9640 ca         1 J8L      -0.014000
     17 C16          1.3750    17.9790    15.5940 ca         1 J8L      -0.104000
     18 C23          6.5930    25.0910    17.5650 c3         1 J8L       0.168100
     19 C25          3.4020    26.9540    14.3890 c3         1 J8L       0.205100
     20 N03          4.6000    23.5490    14.8930 nb         1 J8L      -0.742000
     21 N06          1.8720    23.1430    14.7190 nb         1 J8L      -0.584000
     22 N11         -1.1230    21.8270    14.4460 n1         1 J8L      -0.456000
     23 N18         -0.6620    13.6590    15.0270 n1         1 J8L      -0.448000
     24 N22          5.8320    26.2980    17.3550 n3         1 J8L      -0.747600
     25 H1          -1.7710    16.7060    13.7570 ha         1 J8L       0.128000
     26 H2           1.6900    15.9500    16.1830 ha         1 J8L       0.128000
     27 H3           6.2420    25.1720    14.7920 h1         1 J8L       0.068200
     28 H4           6.0280    26.6880    13.9390 h1         1 J8L       0.068200
     29 H5           7.0810    27.1850    15.9730 h1         1 J8L       0.052700
     30 H6           5.4710    27.8600    16.0540 h1         1 J8L       0.052700
     31 H7           4.4630    26.0290    18.9010 h1         1 J8L       0.030700
     32 H8           3.9380    27.1280    17.6310 h1         1 J8L       0.030700
     33 H9           3.8840    25.3800    17.3720 h1         1 J8L       0.030700
     34 H10          1.6580    25.1590    14.5510 h4         1 J8L       0.034100
     35 H11          4.7710    21.5170    15.0900 h4         1 J8L       0.024100
     36 H12          2.9780    20.0010    15.0340 ha         1 J8L       0.180000
     37 H13         -1.2080    19.0760    13.6900 ha         1 J8L       0.125000
     38 H14          2.2400    18.3210    16.1440 ha         1 J8L       0.125000
     39 H15          6.5810    24.8270    18.6250 h1         1 J8L       0.030700
     40 H16          6.2200    24.2210    17.0060 h1         1 J8L       0.030700
     41 H17          7.6340    25.2510    17.2770 h1         1 J8L       0.030700
     42 H18          4.0100    27.8340    14.2020 h1         1 J8L       0.046367
     43 H19          2.7760    26.7930    13.5110 h1         1 J8L       0.046367
     44 H20          2.7540    27.1680    15.2420 h1         1 J8L       0.046367
     45 N19          4.2760    25.8240    14.6310 nh         1 J8L      -0.764300
@<TRIPOS>BOND
     1     1    13 1   
     2     1    22 3   
     3     2    15 ar  
     4     2    16 ar  
     5     2    25 1   
     6     3    16 ar  
     7     3    17 ar  
     8     3    26 1   
     9     4    16 1   
    10     4    23 3   
    11     5     6 1   
    12     5    27 1   
    13     5    28 1   
    14     5    45 1   
    15     6    24 1   
    16     6    29 1   
    17     6    30 1   
    18     7    24 1   
    19     7    31 1   
    20     7    32 1   
    21     7    33 1   
    22     8     9 ar  
    23     8    21 ar  
    24     8    34 1   
    25     9    20 ar  
    26     9    45 1   
    27    10    11 ar  
    28    10    20 ar  
    29    10    35 1   
    30    11    12 1   
    31    11    21 ar  
    32    12    13 2   
    33    12    36 1   
    34    13    14 1   
    35    14    15 ar  
    36    14    17 ar  
    37    15    37 1   
    38    17    38 1   
    39    18    24 1   
    40    18    39 1   
    41    18    40 1   
    42    18    41 1   
    43    19    42 1   
    44    19    43 1   
    45    19    44 1   
    46    19    45 1   
@<TRIPOS>SUBSTRUCTURE
     1 J8L         1 TEMP              0 ****  ****    0 ROOT
