@<TRIPOS>MOLECULE
J8N
   42    43     1     0     0
SMALL
No Charge or Current Charge


@<TRIPOS>ATOM
      1 C5           0.1800    -2.0780    -0.4640 ca         1 J8N      -0.288500
      2 C6           1.5150    -1.7470    -0.7650 ca         1 J8N       0.244000
      3 C7           1.8260    -0.4490    -1.1890 ca         1 J8N      -0.152000
      4 C8           0.8330     0.5370    -1.3220 ca         1 J8N      -0.011000
      5 C9          -0.5190     0.2180    -1.0300 ca         1 J8N      -0.174600
      6 C10         -0.8260    -1.0980    -0.6050 ca         1 J8N       0.021000
      7 C13          2.6210     2.4940    -0.5760 ca         1 J8N      -0.185000
      8 C14          2.3710     2.2250     0.7840 ca         1 J8N      -0.058500
      9 N1          -0.0570    -4.6420    -1.2430 n8         1 J8N      -1.032100
     10 C15          3.3690     2.4680     1.7440 ca         1 J8N      -0.123000
     11 O3           0.6800    -4.2630     1.0350 o          1 J8N      -0.544500
     12 O20         -1.6310     2.1270    -2.0060 o          1 J8N      -0.589100
     13 C19         -1.6360     1.2340    -1.1710 c          1 J8N       0.610700
     14 N21         -2.7170     1.0590    -0.3340 ns         1 J8N      -0.495900
     15 C22         -3.9100     1.9060    -0.3400 c3         1 J8N       0.102000
     16 C23         -4.9380     1.4500     0.7110 c3         1 J8N      -0.101400
     17 C24         -6.2030     2.3280     0.7190 c3         1 J8N       0.166600
     18 O25         -7.1120     1.8500     1.7160 oh         1 J8N      -0.660000
     19 S2          -0.2850    -3.7230     0.0810 sy         1 J8N       1.160600
     20 O4          -1.7240    -3.8060     0.3170 o          1 J8N      -0.544500
     21 Cl1          2.8480    -2.9000    -0.6580 cl         1 J8N      -0.157000
     22 S12          1.3590     2.1870    -1.8140 ss         1 J8N       0.165000
     23 C18          3.8680     3.0140    -0.9690 ca         1 J8N      -0.058500
     24 C17          4.8640     3.2560    -0.0060 ca         1 J8N      -0.123000
     25 C16          4.6160     2.9820     1.3500 ca         1 J8N      -0.079000
     26 H1           2.8610    -0.2040    -1.4140 ha         1 J8N       0.145000
     27 H2          -1.8610    -1.3720    -0.4040 ha         1 J8N       0.146000
     28 H3           1.4070     1.8300     1.0990 ha         1 J8N       0.127000
     29 H4          -0.9270    -5.1690    -1.2450 hn         1 J8N       0.487000
     30 H5           0.6030    -5.3210    -0.8700 hn         1 J8N       0.487000
     31 H6           3.1740     2.2580     2.7930 ha         1 J8N       0.119000
     32 H7          -2.6490     0.3230     0.3580 hn         1 J8N       0.321500
     33 H8          -3.6090     2.9430    -0.1360 h1         1 J8N       0.053200
     34 H9          -4.3640     1.8700    -1.3400 h1         1 J8N       0.053200
     35 H10         -5.2230     0.4100     0.5100 hc         1 J8N       0.060700
     36 H11         -4.4750     1.4760     1.7050 hc         1 J8N       0.060700
     37 H12         -5.9220     3.3690     0.9290 h1         1 J8N       0.020200
     38 H13         -6.6740     2.2960    -0.2720 h1         1 J8N       0.020200
     39 H14         -7.9010     2.4360     1.6870 ho         1 J8N       0.446000
     40 H15          4.0670     3.2270    -2.0170 ha         1 J8N       0.127000
     41 H16          5.8290     3.6560    -0.3120 ha         1 J8N       0.119000
     42 H17          5.3870     3.1700     2.0940 ha         1 J8N       0.117000
@<TRIPOS>BOND
     1     1     2 ar  
     2     1     6 ar  
     3     1    19 1   
     4     2     3 ar  
     5     2    21 1   
     6     3     4 ar  
     7     3    26 1   
     8     4     5 ar  
     9     4    22 1   
    10     5     6 ar  
    11     5    13 1   
    12     6    27 1   
    13     7     8 ar  
    14     7    22 1   
    15     7    23 ar  
    16     8    10 ar  
    17     8    28 1   
    18     9    19 1   
    19     9    29 1   
    20     9    30 1   
    21    10    25 ar  
    22    10    31 1   
    23    11    19 2   
    24    12    13 2   
    25    13    14 1   
    26    14    15 1   
    27    14    32 1   
    28    15    16 1   
    29    15    33 1   
    30    15    34 1   
    31    16    17 1   
    32    16    35 1   
    33    16    36 1   
    34    17    18 1   
    35    17    37 1   
    36    17    38 1   
    37    18    39 1   
    38    19    20 2   
    39    23    24 ar  
    40    23    40 1   
    41    24    25 ar  
    42    24    41 1   
    43    25    42 1   
@<TRIPOS>SUBSTRUCTURE
     1 J8N         1 TEMP              0 ****  ****    0 ROOT
