@<TRIPOS>MOLECULE
J8N
   42    43     1     0     0
SMALL
bcc


@<TRIPOS>ATOM
      1 C5           0.0590    -2.0020    -0.2540 ca         1 J8N      -0.288500
      2 C6           1.3780    -1.5580    -0.2250 ca         1 J8N       0.152400
      3 C7           1.6690    -0.2160    -0.3780 ca         1 J8N      -0.170000
      4 C8           0.6530     0.7190    -0.5560 ca         1 J8N       0.115900
      5 C9          -0.6790     0.2810    -0.5620 ca         1 J8N      -0.174600
      6 C10         -0.9530    -1.0710    -0.4180 ca         1 J8N       0.003000
      7 C13          2.6940     2.5270    -0.2050 ca         1 J8N      -0.058100
      8 C14          2.9740     2.5680     1.1590 ca         1 J8N      -0.076500
      9 N1           0.3310    -4.3960    -1.3740 n8         1 J8N      -0.921700
     10 C15          4.2870     2.6990     1.5870 ca         1 J8N      -0.141000
     11 O3           0.2800    -4.2510     1.1110 o          1 J8N      -0.615300
     12 O20         -1.6450     2.2030    -1.5340 o          1 J8N      -0.589100
     13 C19         -1.7910     1.2540    -0.7760 c          1 J8N       0.677700
     14 N21         -2.9210     1.0160    -0.1010 ns         1 J8N      -0.562900
     15 C22         -4.0790     1.8830    -0.1990 c3         1 J8N       0.102000
     16 C23         -5.2840     1.2350     0.4610 c3         1 J8N      -0.101400
     17 C24         -6.4850     2.1610     0.4230 c3         1 J8N       0.143400
     18 O25         -7.5730     1.5160     1.0480 oh         1 J8N      -0.597800
     19 S2          -0.3800    -3.7130    -0.0650 sy         1 J8N       1.302200
     20 O4          -1.8310    -3.7750    -0.1470 o          1 J8N      -0.615300
     21 CL1          2.6970    -2.6430    -0.0270 cl         1 J8N      -0.065400
     22 S12          1.0150     2.4340    -0.7690 ss         1 J8N      -0.088800
     23 C18          3.7220     2.6360    -1.1350 ca         1 J8N      -0.076500
     24 C17          5.0330     2.7750    -0.7000 ca         1 J8N      -0.141000
     25 C16          5.3160     2.8030     0.6590 ca         1 J8N      -0.097000
     26 H1           2.7040     0.0930    -0.3640 ha         1 J8N       0.163000
     27 H2          -1.9790    -1.4130    -0.4540 ha         1 J8N       0.164000
     28 H3           2.1700     2.4950     1.8800 ha         1 J8N       0.145000
     29 H4          -0.2480    -4.3940    -2.2060 hn         1 J8N       0.431800
     30 H5           0.7290    -5.3080    -1.1830 hn         1 J8N       0.431800
     31 H6           4.5040     2.7270     2.6460 ha         1 J8N       0.137000
     32 H7          -2.9130     0.3330     0.6400 hn         1 J8N       0.321500
     33 H8          -3.8650     2.8490     0.2720 h1         1 J8N       0.053200
     34 H9          -4.2860     2.0800    -1.2510 h1         1 J8N       0.053200
     35 H10         -5.5240     0.2980    -0.0480 hc         1 J8N       0.060700
     36 H11         -5.0490     0.9920     1.5020 hc         1 J8N       0.060700
     37 H12         -6.2310     3.1030     0.9280 h1         1 J8N       0.020200
     38 H13         -6.7160     2.4140    -0.6200 h1         1 J8N       0.020200
     39 H14         -8.3380     2.0950     0.9870 ho         1 J8N       0.407000
     40 H15          3.4990     2.6060    -2.1940 ha         1 J8N       0.145000
     41 H16          5.8320     2.8580    -1.4250 ha         1 J8N       0.137000
     42 H17          6.3390     2.9110     0.9960 ha         1 J8N       0.135000
@<TRIPOS>BOND
     1     1     2 ar  
     2     1     6 ar  
     3     1    19 1   
     4     2     3 ar  
     5     2    21 1   
     6     3     4 ar  
     7     3    26 1   
     8     4     5 ar  
     9     4    22 1   
    10     5     6 ar  
    11     5    13 1   
    12     6    27 1   
    13     7     8 ar  
    14     7    22 1   
    15     7    23 ar  
    16     8    10 ar  
    17     8    28 1   
    18     9    19 1   
    19     9    29 1   
    20     9    30 1   
    21    10    25 ar  
    22    10    31 1   
    23    11    19 2   
    24    12    13 2   
    25    13    14 1   
    26    14    15 1   
    27    14    32 1   
    28    15    16 1   
    29    15    33 1   
    30    15    34 1   
    31    16    17 1   
    32    16    35 1   
    33    16    36 1   
    34    17    18 1   
    35    17    37 1   
    36    17    38 1   
    37    18    39 1   
    38    19    20 2   
    39    23    24 ar  
    40    23    40 1   
    41    24    25 ar  
    42    24    41 1   
    43    25    42 1   
@<TRIPOS>SUBSTRUCTURE
     1 J8N         1 TEMP              0 ****  ****    0 ROOT
