@<TRIPOS>MOLECULE
J8O
   38    39     1     0     0
SMALL
No Charge or Current Charge


@<TRIPOS>ATOM
      1 C13         32.0850    16.2900     3.1440 ce         1 J8O       0.008100
      2 C15         33.1410    15.4680     3.6670 cg         1 J8O       0.287700
      3 C17         33.4420    18.4170     3.4170 ca         1 J8O      -0.104500
      4 C20         31.1460    19.8270     4.2090 ca         1 J8O      -0.070000
      5 C21         31.0580    18.4610     3.8850 ca         1 J8O      -0.104500
      6 C01         30.1240    12.9580     0.2770 ca         1 J8O       0.248900
      7 C02         30.3210    11.8190     1.1330 ca         1 J8O       0.602900
      8 C04         31.0010    13.2530     2.8050 ca         1 J8O       0.391900
      9 C05         30.8040    14.3820     1.9520 ca         1 J8O       0.227800
     10 C08         29.5450    10.1150    -0.5910 c3         1 J8O       0.222800
     11 C09         27.9910    10.1110    -0.6790 c3         1 J8O       0.134600
     12 C11         30.3100     9.3410     1.6970 c3         1 J8O       0.216100
     13 C12         31.0730    15.7670     2.3850 cf         1 J8O      -0.158800
     14 C14         32.2040    17.7410     3.4890 ca         1 J8O      -0.014800
     15 C18         33.5310    19.7830     3.7400 ca         1 J8O      -0.070000
     16 C19         32.3830    20.4930     4.1380 ca         1 J8O      -0.016000
     17 N03         30.7640    11.9720     2.4070 nb         1 J8O      -0.742000
     18 N06         30.3640    14.2410     0.6760 nb         1 J8O      -0.604000
     19 N16         33.9790    14.7630     4.0710 n1         1 J8O      -0.462000
     20 N23         32.5400    23.0250     4.7310 n1         1 J8O      -0.451000
     21 O10         27.4360    11.4190    -0.4470 oh         1 J8O      -0.656000
     22 H1          34.3410    17.8920     3.1000 ha         1 J8O       0.125500
     23 H2          30.2500    20.3640     4.5160 ha         1 J8O       0.128000
     24 H3          30.0950    17.9600     3.9530 ha         1 J8O       0.125500
     25 H4          29.7770    12.8450    -0.7480 h4         1 J8O       0.036100
     26 H5          31.3380    13.3780     3.8330 h4         1 J8O       0.035100
     27 H6          29.8940     9.1130    -0.8760 h1         1 J8O       0.063700
     28 H7          29.9450    10.7840    -1.3640 h1         1 J8O       0.063700
     29 H8          27.7000     9.7520    -1.6750 h1         1 J8O       0.027700
     30 H9          27.5980     9.3960     0.0570 h1         1 J8O       0.027700
     31 H10         31.3600     9.2930     2.0150 h1         1 J8O       0.046367
     32 H11         29.6740     9.4610     2.5840 h1         1 J8O       0.046367
     33 H12         30.0560     8.3770     1.2350 h1         1 J8O       0.046367
     34 H13         30.3480    16.4750     1.9850 ha         1 J8O       0.199000
     35 H14         34.4930    20.2880     3.6780 ha         1 J8O       0.128000
     36 H15         26.4570    11.3260    -0.4770 ho         1 J8O       0.451000
     37 N07         30.1010    10.4650     0.7470 nh         1 J8O      -0.760300
     38 C22         32.4740    21.8890     4.4690 cg         1 J8O       0.323000
@<TRIPOS>BOND
     1     1     2 1   
     2     1    13 2   
     3     1    14 1   
     4     2    19 3   
     5     3    14 ar  
     6     3    15 ar  
     7     3    22 1   
     8     4     5 ar  
     9     4    16 ar  
    10     4    23 1   
    11     5    14 ar  
    12     5    24 1   
    13     6     7 ar  
    14     6    18 ar  
    15     6    25 1   
    16     7    17 ar  
    17     7    37 1   
    18     8     9 ar  
    19     8    17 ar  
    20     8    26 1   
    21     9    13 1   
    22     9    18 ar  
    23    10    11 1   
    24    10    27 1   
    25    10    28 1   
    26    10    37 1   
    27    11    21 1   
    28    11    29 1   
    29    11    30 1   
    30    12    31 1   
    31    12    32 1   
    32    12    33 1   
    33    12    37 1   
    34    13    34 1   
    35    15    16 ar  
    36    15    35 1   
    37    16    38 1   
    38    20    38 3   
    39    21    36 1   
@<TRIPOS>SUBSTRUCTURE
     1 J8O         1 TEMP              0 ****  ****    0 ROOT
