@<TRIPOS>MOLECULE
J8O
   38    39     1     0     0
SMALL
bcc


@<TRIPOS>ATOM
      1 C13         31.9960    16.2290     3.2880 ce         1 J8O       0.008100
      2 C15         32.8480    15.3820     4.0520 cg         1 J8O       0.198500
      3 C17         33.3660    18.2030     3.9550 ca         1 J8O      -0.122500
      4 C20         31.2040    19.9020     3.5650 ca         1 J8O      -0.088000
      5 C21         31.0610    18.5440     3.3600 ca         1 J8O      -0.122500
      6 C01         29.9130    13.0690     0.3400 ca         1 J8O       0.248900
      7 C02         30.3070    11.8860     1.0380 ca         1 J8O       0.602900
      8 C04         31.1360    13.2200     2.6970 ca         1 J8O       0.391900
      9 C05         30.8480    14.3750     1.9740 ca         1 J8O       0.227800
     10 C08         29.4310    10.3590    -0.6690 c3         1 J8O       0.222800
     11 C09         27.9700    10.0290    -0.4240 c3         1 J8O       0.111400
     12 C11         30.5250     9.5130     1.3850 c3         1 J8O       0.216100
     13 C12         31.1420    15.7330     2.3600 cf         1 J8O      -0.108800
     14 C14         32.1410    17.6750     3.5370 ca         1 J8O      -0.014800
     15 C18         33.5190    19.5600     4.1670 ca         1 J8O      -0.088000
     16 C19         32.4360    20.4150     3.9690 ca         1 J8O      -0.016000
     17 N03         30.8710    12.0110     2.2440 nb         1 J8O      -0.742000
     18 N06         30.1890    14.2520     0.8020 nb         1 J8O      -0.604000
     19 N16         33.5560    14.7270     4.6860 n1         1 J8O      -0.372800
     20 N23         32.7170    22.9460     4.3760 n1         1 J8O      -0.361800
     21 O10         27.3540    11.1310     0.1940 oh         1 J8O      -0.593800
     22 H1          34.2200    17.5560     4.1040 ha         1 J8O       0.143500
     23 H2          30.3570    20.5610     3.4270 ha         1 J8O       0.146000
     24 H3          30.0890    18.1600     3.0820 ha         1 J8O       0.143500
     25 H4          29.3600    13.0290    -0.5890 h4         1 J8O       0.036100
     26 H5          31.5680    13.2620     3.6890 h4         1 J8O       0.035100
     27 H6          29.9030     9.5040    -1.1550 h1         1 J8O       0.063700
     28 H7          29.5260    11.1900    -1.3670 h1         1 J8O       0.063700
     29 H8          27.5140     9.7840    -1.3920 h1         1 J8O       0.027700
     30 H9          27.9050     9.1260     0.1960 h1         1 J8O       0.027700
     31 H10         31.5640     9.5820     1.7030 h1         1 J8O       0.046367
     32 H11         29.9010     9.4380     2.2770 h1         1 J8O       0.046367
     33 H12         30.4040     8.6040     0.8030 h1         1 J8O       0.046367
     34 H13         30.6100    16.4620     1.7590 ha         1 J8O       0.149000
     35 H14         34.4750    19.9540     4.4810 ha         1 J8O       0.146000
     36 H15         26.4750    10.8690     0.4800 ho         1 J8O       0.412000
     37 N07         30.1550    10.6440     0.5540 nh         1 J8O      -0.760300
     38 C22         32.5880    21.8160     4.1920 cg         1 J8O       0.233800
@<TRIPOS>BOND
     1     1     2 1   
     2     1    13 2   
     3     1    14 1   
     4     2    19 3   
     5     3    14 ar  
     6     3    15 ar  
     7     3    22 1   
     8     4     5 ar  
     9     4    16 ar  
    10     4    23 1   
    11     5    14 ar  
    12     5    24 1   
    13     6     7 ar  
    14     6    18 ar  
    15     6    25 1   
    16     7    17 ar  
    17     7    37 1   
    18     8     9 ar  
    19     8    17 ar  
    20     8    26 1   
    21     9    13 1   
    22     9    18 ar  
    23    10    11 1   
    24    10    27 1   
    25    10    28 1   
    26    10    37 1   
    27    11    21 1   
    28    11    29 1   
    29    11    30 1   
    30    12    31 1   
    31    12    32 1   
    32    12    33 1   
    33    12    37 1   
    34    13    34 1   
    35    15    16 ar  
    36    15    35 1   
    37    16    38 1   
    38    20    38 3   
    39    21    36 1   
@<TRIPOS>SUBSTRUCTURE
     1 J8O         1 TEMP              0 ****  ****    0 ROOT
