@<TRIPOS>MOLECULE
J8Q
   50    51     1     0     0
SMALL
bcc


@<TRIPOS>ATOM
      1 O24         -1.2730    -2.5890     1.3850 o          1 J8Q      -0.587100
      2 C23         -1.7860    -1.7720     0.6320 c          1 J8Q       0.678700
      3 N25         -2.9100    -2.0040    -0.0570 ns         1 J8Q      -0.566900
      4 C27         -3.6760    -3.2280     0.0700 c3         1 J8Q       0.101000
      5 C28         -5.1320    -2.9970    -0.3010 c3         1 J8Q      -0.096400
      6 C29         -5.9720    -4.2550    -0.1200 c3         1 J8Q      -0.072400
      7 C30         -7.4330    -4.0350    -0.4830 c3         1 J8Q      -0.089100
      8 C11         -1.1730    -0.4210     0.4520 ca         1 J8Q      -0.172600
      9 C12         -1.9860     0.6920     0.3080 ca         1 J8Q       0.004000
     10 C7          -1.4600     1.9680     0.1850 ca         1 J8Q      -0.292500
     11 S4          -2.5770     3.3330    -0.0140 sy         1 J8Q       1.297200
     12 O5          -2.1580     4.1420    -1.1450 o          1 J8Q      -0.615300
     13 O6          -3.9180     2.7700    -0.0180 o          1 J8Q      -0.615300
     14 N1          -2.2820     4.2110     1.3410 n8         1 J8Q      -0.912700
     15 C10          0.2240    -0.2580     0.4910 ca         1 J8Q       0.125900
     16 C9           0.7490     1.0260     0.3530 ca         1 J8Q      -0.185000
     17 C8          -0.0770     2.1240     0.2020 ca         1 J8Q       0.157400
     18 CL1          0.6650     3.6680     0.0660 cl         1 J8Q      -0.062400
     19 S14          1.2660    -1.6530     0.6960 ss         1 J8Q      -0.128000
     20 C15          2.9090    -0.9960     0.2800 c3         1 J8Q      -0.037300
     21 C16          3.8900    -2.1670     0.2550 c3         1 J8Q      -0.019100
     22 C17          5.2810    -1.6670    -0.0240 ca         1 J8Q      -0.086300
     23 C22          6.1110    -1.2680     1.0210 ca         1 J8Q      -0.123000
     24 C21          7.3800    -0.7650     0.7690 ca         1 J8Q      -0.126000
     25 C20          7.8360    -0.6500    -0.5380 ca         1 J8Q      -0.126000
     26 C19          7.0160    -1.0440    -1.5880 ca         1 J8Q      -0.126000
     27 C18          5.7480    -1.5480    -1.3310 ca         1 J8Q      -0.123000
     28 H1          -3.1800    -1.3610    -0.7850 hn         1 J8Q       0.318500
     29 H2          -3.2470    -4.0150    -0.5580 h1         1 J8Q       0.054700
     30 H3          -3.6060    -3.5710     1.1030 h1         1 J8Q       0.054700
     31 H4          -5.5380    -2.1900     0.3160 hc         1 J8Q       0.045700
     32 H5          -5.2000    -2.6600    -1.3410 hc         1 J8Q       0.045700
     33 H6          -5.5570    -5.0630    -0.7300 hc         1 J8Q       0.040700
     34 H7          -5.8980    -4.5900     0.9190 hc         1 J8Q       0.040700
     35 H8          -8.0230    -4.9390    -0.3250 hc         1 J8Q       0.034033
     36 H9          -7.8730    -3.2430     0.1250 hc         1 J8Q       0.034033
     37 H10         -7.5420    -3.7460    -1.5300 hc         1 J8Q       0.034033
     38 H11         -3.0600     0.5700     0.3140 ha         1 J8Q       0.163000
     39 H12         -2.8120     3.9010     2.1480 hn         1 J8Q       0.428800
     40 H13         -2.3790     5.2090     1.1890 hn         1 J8Q       0.428800
     41 H14          1.8150     1.1950     0.3780 ha         1 J8Q       0.155000
     42 H15          2.8780    -0.5070    -0.6950 h1         1 J8Q       0.070200
     43 H16          3.2210    -0.2670     1.0290 h1         1 J8Q       0.070200
     44 H17          3.8680    -2.6880     1.2150 hc         1 J8Q       0.062200
     45 H18          3.5870    -2.8860    -0.5090 hc         1 J8Q       0.062200
     46 H19          5.7620    -1.3570     2.0430 ha         1 J8Q       0.130000
     47 H20          8.0140    -0.4640     1.5940 ha         1 J8Q       0.132000
     48 H21          8.8250    -0.2580    -0.7390 ha         1 J8Q       0.132000
     49 H22          7.3650    -0.9610    -2.6090 ha         1 J8Q       0.132000
     50 H23          5.1160    -1.8570    -2.1560 ha         1 J8Q       0.130000
@<TRIPOS>BOND
     1     1     2 2   
     2     2     3 1   
     3     2     8 1   
     4     3     4 1   
     5     3    28 1   
     6     4     5 1   
     7     4    29 1   
     8     4    30 1   
     9     5     6 1   
    10     5    31 1   
    11     5    32 1   
    12     6     7 1   
    13     6    33 1   
    14     6    34 1   
    15     7    35 1   
    16     7    36 1   
    17     7    37 1   
    18     8     9 ar  
    19     8    15 ar  
    20     9    10 ar  
    21     9    38 1   
    22    10    11 1   
    23    10    17 ar  
    24    11    12 2   
    25    11    13 2   
    26    11    14 1   
    27    14    39 1   
    28    14    40 1   
    29    15    16 ar  
    30    15    19 1   
    31    16    17 ar  
    32    16    41 1   
    33    17    18 1   
    34    19    20 1   
    35    20    21 1   
    36    20    42 1   
    37    20    43 1   
    38    21    22 1   
    39    21    44 1   
    40    21    45 1   
    41    22    23 ar  
    42    22    27 ar  
    43    23    24 ar  
    44    23    46 1   
    45    24    25 ar  
    46    24    47 1   
    47    25    26 ar  
    48    25    48 1   
    49    26    27 ar  
    50    26    49 1   
    51    27    50 1   
@<TRIPOS>SUBSTRUCTURE
     1 J8Q         1 TEMP              0 ****  ****    0 ROOT
