@<TRIPOS>MOLECULE
J8Q
   50    51     1     0     0
SMALL
No Charge or Current Charge


@<TRIPOS>ATOM
      1 O24         -1.4320    -2.3550     2.1400 o          1 J8Q      -0.587100
      2 C23         -1.7880    -1.5510     1.2910 c          1 J8Q       0.611700
      3 N25         -2.8470    -1.8310     0.4540 ns         1 J8Q      -0.499900
      4 C27         -3.6050    -3.0810     0.4730 c3         1 J8Q       0.101000
      5 C28         -4.7310    -3.0770    -0.5770 c3         1 J8Q      -0.096400
      6 C29         -5.5530    -4.3850    -0.5820 c3         1 J8Q      -0.072400
      7 C30         -6.6810    -4.3850    -1.6310 c3         1 J8Q      -0.089100
      8 C11         -1.1770    -0.1730     1.1330 ca         1 J8Q      -0.172600
      9 C12         -2.0110     0.9090     0.7620 ca         1 J8Q       0.022000
     10 C7          -1.4980     2.2150     0.6110 ca         1 J8Q      -0.292500
     11 S4          -2.6150     3.5360     0.1380 sy         1 J8Q       1.155600
     12 O5          -1.9980     4.4360    -0.8320 o          1 J8Q      -0.544500
     13 O6          -3.9730     3.0290    -0.0420 o          1 J8Q      -0.544500
     14 N1          -2.7170     4.4470     1.4840 n8         1 J8Q      -1.023100
     15 C10          0.2030     0.0760     1.3530 ca         1 J8Q      -0.001000
     16 C9           0.7020     1.3840     1.2170 ca         1 J8Q      -0.167000
     17 C8          -0.1300     2.4500     0.8500 ca         1 J8Q       0.249000
     18 Cl1          0.6110     4.0490     0.7380 cl         1 J8Q      -0.154000
     19 S14          1.3550    -1.2430     1.7690 ss         1 J8Q      -0.049000
     20 C15          2.8430    -0.8950     0.7320 c3         1 J8Q       0.010600
     21 C16          3.8530    -2.0520     0.8290 c3         1 J8Q      -0.019100
     22 C17          5.0900    -1.7960    -0.0210 ca         1 J8Q      -0.086300
     23 C22          6.2040    -1.1310     0.5270 ca         1 J8Q      -0.105000
     24 C21          7.3430    -0.8880    -0.2610 ca         1 J8Q      -0.108000
     25 C20          7.3740    -1.3070    -1.6010 ca         1 J8Q      -0.108000
     26 C19          6.2640    -1.9680    -2.1550 ca         1 J8Q      -0.108000
     27 C18          5.1250    -2.2110    -1.3670 ca         1 J8Q      -0.105000
     28 H1          -3.0760    -1.1370    -0.2460 hn         1 J8Q       0.318500
     29 H2          -2.9180    -3.9150     0.2740 h1         1 J8Q       0.054700
     30 H3          -4.0360    -3.2200     1.4740 h1         1 J8Q       0.054700
     31 H4          -5.4020    -2.2300    -0.3820 hc         1 J8Q       0.045700
     32 H5          -4.2950    -2.9220    -1.5720 hc         1 J8Q       0.045700
     33 H6          -4.8850    -5.2330    -0.7760 hc         1 J8Q       0.040700
     34 H7          -5.9910    -4.5430     0.4120 hc         1 J8Q       0.040700
     35 H8          -7.2350    -5.3300    -1.5970 hc         1 J8Q       0.034033
     36 H9          -7.3870    -3.5670    -1.4430 hc         1 J8Q       0.034033
     37 H10         -6.2720    -4.2640    -2.6420 hc         1 J8Q       0.034033
     38 H11         -3.0760     0.7400     0.6130 ha         1 J8Q       0.145000
     39 H12         -3.7250     4.5720     1.5390 hn         1 J8Q       0.484000
     40 H13         -2.4110     5.3430     1.1110 hn         1 J8Q       0.484000
     41 H14          1.7500     1.5910     1.4060 ha         1 J8Q       0.137000
     42 H15          2.5250    -0.7670    -0.3110 h1         1 J8Q       0.070200
     43 H16          3.3170     0.0330     1.0720 h1         1 J8Q       0.070200
     44 H17          4.1380    -2.1930     1.8790 hc         1 J8Q       0.062200
     45 H18          3.3650    -2.9830     0.5160 hc         1 J8Q       0.062200
     46 H19          6.1890    -0.8010     1.5640 ha         1 J8Q       0.112000
     47 H20          8.2010    -0.3750     0.1680 ha         1 J8Q       0.114000
     48 H21          8.2550    -1.1190    -2.2110 ha         1 J8Q       0.114000
     49 H22          6.2860    -2.2910    -3.1930 ha         1 J8Q       0.114000
     50 H23          4.2690    -2.7210    -1.8040 ha         1 J8Q       0.112000
@<TRIPOS>BOND
     1     1     2 2   
     2     2     3 1   
     3     2     8 1   
     4     3     4 1   
     5     3    28 1   
     6     4     5 1   
     7     4    29 1   
     8     4    30 1   
     9     5     6 1   
    10     5    31 1   
    11     5    32 1   
    12     6     7 1   
    13     6    33 1   
    14     6    34 1   
    15     7    35 1   
    16     7    36 1   
    17     7    37 1   
    18     8     9 ar  
    19     8    15 ar  
    20     9    10 ar  
    21     9    38 1   
    22    10    11 1   
    23    10    17 ar  
    24    11    12 2   
    25    11    13 2   
    26    11    14 1   
    27    14    39 1   
    28    14    40 1   
    29    15    16 ar  
    30    15    19 1   
    31    16    17 ar  
    32    16    41 1   
    33    17    18 1   
    34    19    20 1   
    35    20    21 1   
    36    20    42 1   
    37    20    43 1   
    38    21    22 1   
    39    21    44 1   
    40    21    45 1   
    41    22    23 ar  
    42    22    27 ar  
    43    23    24 ar  
    44    23    46 1   
    45    24    25 ar  
    46    24    47 1   
    47    25    26 ar  
    48    25    48 1   
    49    26    27 ar  
    50    26    49 1   
    51    27    50 1   
@<TRIPOS>SUBSTRUCTURE
     1 J8Q         1 TEMP              0 ****  ****    0 ROOT
