@<TRIPOS>MOLECULE
J8R
   39    40     1     0     0
SMALL
bcc


@<TRIPOS>ATOM
      1 C10         30.2940     7.3040     0.9570 c3         1 J8R       0.207100
      2 C13         31.8810    14.1270     3.2630 ce         1 J8R      -0.006900
      3 C15         33.0660    16.1710     4.0680 ca         1 J8R      -0.127000
      4 C17         32.0260    18.3330     3.9840 ca         1 J8R      -0.019000
      5 C20         32.7270    13.3340     4.0860 cg         1 J8R       0.208500
      6 C22         32.0740    19.7370     4.2280 cg         1 J8R       0.234800
      7 C01         31.0230     9.8120     2.0180 ca         1 J8R      -0.331300
      8 C02         30.1320     9.7230     0.9180 ca         1 J8R       0.725200
      9 C04         29.9870    12.0050     0.8340 ca         1 J8R       0.491200
     10 C05         30.8560    12.2140     1.9150 ca         1 J8R      -0.283100
     11 C06         31.3720    11.0420     2.5020 ca         1 J8R      -0.012000
     12 C08         28.7100     8.4140    -0.5800 c3         1 J8R       0.223800
     13 C09         27.4030     7.9360     0.0280 c3         1 J8R       0.115400
     14 C12         31.0930    13.5740     2.3040 cf         1 J8R       0.013800
     15 C14         31.9270    15.5790     3.5130 ca         1 J8R      -0.007800
     16 C16         33.1210    17.5310     4.3020 ca         1 J8R      -0.086500
     17 C18         30.8790    17.7580     3.4370 ca         1 J8R      -0.086500
     18 C19         30.8320    16.3970     3.2140 ca         1 J8R      -0.127000
     19 N03         29.6360    10.8360     0.3550 nb         1 J8R      -0.750000
     20 N07         29.7750     8.5340     0.3980 nh         1 J8R      -0.767300
     21 N21         33.4280    12.7240     4.7720 n1         1 J8R      -0.384800
     22 N23         32.1100    20.8720     4.4260 n1         1 J8R      -0.362800
     23 O11         26.9750     8.8640     0.9950 oh         1 J8R      -0.583800
     24 H1          31.3850     7.3080     0.9800 h1         1 J8R       0.042033
     25 H2          29.9270     7.1160     1.9690 h1         1 J8R       0.042033
     26 H3          29.9850     6.4730     0.3280 h1         1 J8R       0.042033
     27 H4          33.9310    15.5690     4.3140 ha         1 J8R       0.141500
     28 H5          31.4190     8.9280     2.4950 ha         1 J8R       0.144000
     29 H6          29.5510    12.8680     0.3360 h4         1 J8R       0.013100
     30 H7          32.0410    11.0820     3.3490 ha         1 J8R       0.145000
     31 H8          29.0160     7.6970    -1.3450 h1         1 J8R       0.073200
     32 H9          28.5680     9.3730    -1.0700 h1         1 J8R       0.073200
     33 H10         26.6790     7.8270    -0.7910 h1         1 J8R       0.020200
     34 H11         27.5390     6.9360     0.4600 h1         1 J8R       0.020200
     35 H12         30.5370    14.2870     1.7040 ha         1 J8R       0.125000
     36 H13         34.0140    17.9690     4.7270 ha         1 J8R       0.145000
     37 H14         30.0200    18.3730     3.2040 ha         1 J8R       0.145000
     38 H15         29.9160    15.9710     2.8260 ha         1 J8R       0.141500
     39 H16         26.2160     8.4930     1.4540 ho         1 J8R       0.403000
@<TRIPOS>BOND
     1     1    20 1   
     2     1    24 1   
     3     1    25 1   
     4     1    26 1   
     5     2     5 1   
     6     2    14 2   
     7     2    15 1   
     8     3    15 ar  
     9     3    16 ar  
    10     3    27 1   
    11     4     6 1   
    12     4    16 ar  
    13     4    17 ar  
    14     5    21 3   
    15     6    22 3   
    16     7     8 ar  
    17     7    11 ar  
    18     7    28 1   
    19     8    19 ar  
    20     8    20 1   
    21     9    10 ar  
    22     9    19 ar  
    23     9    29 1   
    24    10    11 ar  
    25    10    14 1   
    26    11    30 1   
    27    12    13 1   
    28    12    20 1   
    29    12    31 1   
    30    12    32 1   
    31    13    23 1   
    32    13    33 1   
    33    13    34 1   
    34    14    35 1   
    35    15    18 ar  
    36    16    36 1   
    37    17    18 ar  
    38    17    37 1   
    39    18    38 1   
    40    23    39 1   
@<TRIPOS>SUBSTRUCTURE
     1 J8R         1 TEMP              0 ****  ****    0 ROOT
