@<TRIPOS>MOLECULE
J8R
   39    40     1     0     0
SMALL
No Charge or Current Charge


@<TRIPOS>ATOM
      1 C10         30.4850     7.2400     0.8810 c3         1 J8R       0.207100
      2 C13         31.8450    14.1690     3.2650 ce         1 J8R      -0.006900
      3 C15         33.2120    16.2680     3.6720 ca         1 J8R      -0.109000
      4 C17         32.1220    18.4180     4.0480 ca         1 J8R      -0.019000
      5 C20         32.7170    13.3600     4.0680 cg         1 J8R       0.297700
      6 C22         32.2050    19.8290     4.3070 cg         1 J8R       0.324000
      7 C01         30.5550     9.8650     2.2580 ca         1 J8R      -0.248000
      8 C02         30.1450     9.7250     0.9230 ca         1 J8R       0.659900
      9 C04         30.3080    11.9970     0.5760 ca         1 J8R       0.425900
     10 C05         30.7400    12.2420     1.8950 ca         1 J8R      -0.217800
     11 C06         30.8520    11.1380     2.7610 ca         1 J8R       0.006000
     12 C08         28.7420     8.2910    -0.6250 c3         1 J8R       0.223800
     13 C09         27.3960     7.7970    -0.0170 c3         1 J8R       0.138600
     14 C12         31.0140    13.6400     2.3150 cf         1 J8R      -0.036200
     15 C14         31.9560    15.6360     3.5410 ca         1 J8R      -0.007800
     16 C16         33.2940    17.6490     3.9240 ca         1 J8R      -0.068500
     17 C18         30.8670    17.7940     3.9160 ca         1 J8R      -0.068500
     18 C19         30.7870    16.4140     3.6620 ca         1 J8R      -0.109000
     19 N03         30.0240    10.7710     0.0920 nb         1 J8R      -0.750000
     20 N07         29.8520     8.4690     0.3580 nh         1 J8R      -0.767300
     21 N21         33.4520    12.7380     4.7300 n1         1 J8R      -0.474000
     22 N23         32.2680    20.9780     4.5090 n1         1 J8R      -0.452000
     23 O11         26.8450     8.7460     0.9160 oh         1 J8R      -0.646000
     24 H1          31.5350     7.4280     1.1440 h1         1 J8R       0.042033
     25 H2          29.9550     6.8830     1.7740 h1         1 J8R       0.042033
     26 H3          30.4710     6.4420     0.1260 h1         1 J8R       0.042033
     27 H4          34.1310    15.6960     3.5680 ha         1 J8R       0.123500
     28 H5          30.6250     9.0000     2.9080 ha         1 J8R       0.126000
     29 H6          30.1940    12.8210    -0.1290 h4         1 J8R       0.013100
     30 H7          31.1330    11.2480     3.8050 ha         1 J8R       0.127000
     31 H8          29.0510     7.5630    -1.3870 h1         1 J8R       0.073200
     32 H9          28.5420     9.2180    -1.1770 h1         1 J8R       0.073200
     33 H10         26.6860     7.6240    -0.8360 h1         1 J8R       0.020200
     34 H11         27.5630     6.8320     0.4810 h1         1 J8R       0.020200
     35 H12         30.4440    14.3710     1.7380 ha         1 J8R       0.175000
     36 H13         34.2710    18.1200     4.0210 ha         1 J8R       0.127000
     37 H14         29.9520    18.3770     4.0100 ha         1 J8R       0.127000
     38 H15         29.8080    15.9470     3.5700 ha         1 J8R       0.123500
     39 H16         26.0280     8.3440     1.2850 ho         1 J8R       0.442000
@<TRIPOS>BOND
     1     1    20 1   
     2     1    24 1   
     3     1    25 1   
     4     1    26 1   
     5     2     5 1   
     6     2    14 2   
     7     2    15 1   
     8     3    15 ar  
     9     3    16 ar  
    10     3    27 1   
    11     4     6 1   
    12     4    16 ar  
    13     4    17 ar  
    14     5    21 3   
    15     6    22 3   
    16     7     8 ar  
    17     7    11 ar  
    18     7    28 1   
    19     8    19 ar  
    20     8    20 1   
    21     9    10 ar  
    22     9    19 ar  
    23     9    29 1   
    24    10    11 ar  
    25    10    14 1   
    26    11    30 1   
    27    12    13 1   
    28    12    20 1   
    29    12    31 1   
    30    12    32 1   
    31    13    23 1   
    32    13    33 1   
    33    13    34 1   
    34    14    35 1   
    35    15    18 ar  
    36    16    36 1   
    37    17    18 ar  
    38    17    37 1   
    39    18    38 1   
    40    23    39 1   
@<TRIPOS>SUBSTRUCTURE
     1 J8R         1 TEMP              0 ****  ****    0 ROOT
