@<TRIPOS>MOLECULE
J8S
   50    52     1     0     0
SMALL
abcg2


@<TRIPOS>ATOM
      1 C4          -3.7370     0.3750    -0.7320 ca         1 J8S      -0.197000
      2 C5          -4.6410    -0.4760    -0.0880 ca         1 J8S      -0.041000
      3 C7          -7.0750    -1.8370     0.1870 c3         1 J8S       0.020900
      4 C8          -4.3060    -1.0530     1.1300 ca         1 J8S      -0.166000
      5 C10         -2.1550     0.0520     1.0650 ca         1 J8S      -0.182600
      6 C15          1.1910    -0.9240    -0.7950 c6         1 J8S      -0.094400
      7 C17          3.5140    -0.1790    -1.4320 c3         1 J8S      -0.027100
      8 C20          7.0770    -0.8660    -0.3120 ca         1 J8S      -0.109000
      9 C21          7.5760     0.4190    -0.1310 ca         1 J8S      -0.112000
     10 C22          6.7590     1.5110    -0.3900 ca         1 J8S      -0.109000
     11 C24          2.5080     0.4500     0.8190 c6         1 J8S      -0.094400
     12 C1          -1.8280     2.0400    -1.9560 c3         1 J8S       0.146900
     13 C11         -0.8600     0.4110     1.7320 c          1 J8S       0.634700
     14 C14          0.2580    -1.3110     0.3440 c6         1 J8S       0.101000
     15 C16          2.5940    -0.6050    -0.2830 c6         1 J8S      -0.056700
     16 C18          4.9380     0.0360    -1.0030 ca         1 J8S      -0.077300
     17 C19          5.7710    -1.0520    -0.7440 ca         1 J8S      -0.108000
     18 C23          5.4530     1.3180    -0.8230 ca         1 J8S      -0.108000
     19 C25          1.5400     0.0300     1.9170 c6         1 J8S       0.101000
     20 C3          -2.5030     0.6410    -0.1570 ca         1 J8S       0.179100
     21 C9          -3.0670    -0.7730     1.6950 ca         1 J8S      -0.031000
     22 N13          0.2320    -0.2790     1.3640 n          1 J8S      -0.398800
     23 O12         -0.8520     1.2880     2.5890 o          1 J8S      -0.597100
     24 O2          -1.5700     1.4420    -0.6990 os         1 J8S      -0.336100
     25 S6          -6.1680    -0.7420    -0.9190 ss         1 J8S      -0.160000
     26 H1          -4.0110     0.8220    -1.6790 ha         1 J8S       0.129000
     27 H2          -7.2730    -1.3670     1.1480 h1         1 J8S       0.067367
     28 H3          -8.0250    -2.0350    -0.3050 h1         1 J8S       0.067367
     29 H4          -6.5570    -2.7830     0.3330 h1         1 J8S       0.067367
     30 H5          -4.9840    -1.7140     1.6500 ha         1 J8S       0.119000
     31 H6           1.2280    -1.7440    -1.5170 hc         1 J8S       0.051450
     32 H7           0.7780    -0.0540    -1.3140 hc         1 J8S       0.051450
     33 H8           3.4780    -0.9480    -2.2090 hc         1 J8S       0.046700
     34 H9           3.1220     0.7370    -1.8830 hc         1 J8S       0.046700
     35 H11          8.5940     0.5670     0.2050 ha         1 J8S       0.112000
     36 H12          7.1380     2.5160    -0.2570 ha         1 J8S       0.111500
     37 H13          3.4890     0.6230     1.2660 hc         1 J8S       0.051450
     38 H14          2.1800     1.4040     0.3930 hc         1 J8S       0.051450
     39 H15         -1.9920     1.2910    -2.7340 h1         1 J8S       0.044033
     40 H16         -2.6930     2.7060    -1.9170 h1         1 J8S       0.044033
     41 H17         -0.9450     2.6210    -2.2060 h1         1 J8S       0.044033
     42 H18         -0.7460    -1.5000    -0.0250 h1         1 J8S       0.053950
     43 H19          0.6070    -2.2430     0.8040 h1         1 J8S       0.053950
     44 H20          3.0020    -1.5230     0.1610 hc         1 J8S       0.047700
     45 H21          5.3950    -2.0580    -0.8880 ha         1 J8S       0.110000
     46 H22          4.8240     2.1780    -1.0240 ha         1 J8S       0.110000
     47 H23          1.9230    -0.8640     2.4230 h1         1 J8S       0.053950
     48 H24          1.4390     0.8100     2.6670 h1         1 J8S       0.053950
     49 H25         -2.8100    -1.2270     2.6440 ha         1 J8S       0.123000
     50 H10          7.7070    -1.7240    -0.1190 ha         1 J8S       0.111500
@<TRIPOS>BOND
     1     1     2 ar  
     2     1    20 ar  
     3     1    26 1   
     4     2     4 ar  
     5     2    25 1   
     6     3    25 1   
     7     3    27 1   
     8     3    28 1   
     9     3    29 1   
    10     4    21 ar  
    11     4    30 1   
    12     5    13 1   
    13     5    20 ar  
    14     5    21 ar  
    15     6    14 1   
    16     6    15 1   
    17     6    31 1   
    18     6    32 1   
    19     7    15 1   
    20     7    16 1   
    21     7    33 1   
    22     7    34 1   
    23     8     9 ar  
    24     8    17 ar  
    25     8    50 1   
    26     9    10 ar  
    27     9    35 1   
    28    10    18 ar  
    29    10    36 1   
    30    11    15 1   
    31    11    19 1   
    32    11    37 1   
    33    11    38 1   
    34    12    24 1   
    35    12    39 1   
    36    12    40 1   
    37    12    41 1   
    38    13    22 1   
    39    13    23 2   
    40    14    22 1   
    41    14    42 1   
    42    14    43 1   
    43    15    44 1   
    44    16    17 ar  
    45    16    18 ar  
    46    17    45 1   
    47    18    46 1   
    48    19    22 1   
    49    19    47 1   
    50    19    48 1   
    51    20    24 1   
    52    21    49 1   
@<TRIPOS>SUBSTRUCTURE
     1 J8S         1 TEMP              0 ****  ****    0 ROOT
