@<TRIPOS>MOLECULE
J8S
   50    52     1     0     0
SMALL
No Charge or Current Charge


@<TRIPOS>ATOM
      1 C4          -3.9580     0.2650    -0.5990 ca         1 J8S      -0.197000
      2 C5          -4.9020    -0.5330     0.0660 ca         1 J8S      -0.041000
      3 C7          -7.4430    -1.9070     0.3990 c3         1 J8S       0.020900
      4 C8          -4.5650    -1.1090     1.3040 ca         1 J8S      -0.166000
      5 C10         -2.3280    -0.1280     1.1780 ca         1 J8S      -0.182600
      6 C15          1.3610    -0.6870    -1.1300 c6         1 J8S      -0.094400
      7 C17          3.8360    -0.1520    -1.5340 c3         1 J8S      -0.027100
      8 C20          7.2220    -1.0010     0.0630 ca         1 J8S      -0.109000
      9 C21          7.8210     0.2670     0.1490 ca         1 J8S      -0.112000
     10 C22          7.1310     1.4010    -0.3130 ca         1 J8S      -0.109000
     11 C24          2.6010     0.6840     0.5700 c6         1 J8S      -0.094400
     12 C1          -2.0090     1.9440    -1.9350 c3         1 J8S       0.146900
     13 C11         -0.9770     0.0590     1.8210 c          1 J8S       0.634700
     14 C14          0.2730    -0.9980    -0.0770 c6         1 J8S       0.101000
     15 C16          2.7390    -0.4530    -0.4700 c6         1 J8S      -0.056700
     16 C18          5.2360    -0.0030    -0.9470 ca         1 J8S      -0.077300
     17 C19          5.9340    -1.1350    -0.4830 ca         1 J8S      -0.108000
     18 C23          5.8430     1.2660    -0.8590 ca         1 J8S      -0.108000
     19 C25          1.4990     0.3770     1.6120 c6         1 J8S       0.101000
     20 C3          -2.6740     0.4830    -0.0500 ca         1 J8S       0.179100
     21 C9          -3.2920    -0.9000     1.8570 ca         1 J8S      -0.031000
     22 N13          0.1820     0.0220     1.0110 n          1 J8S      -0.398800
     23 O12         -0.8970     0.3060     3.0190 o          1 J8S      -0.597100
     24 O2          -1.7600     1.3170    -0.6650 os         1 J8S      -0.336100
     25 S6          -6.5100    -0.7550    -0.7050 ss         1 J8S      -0.160000
     26 H1          -4.2450     0.7190    -1.5420 ha         1 J8S       0.129000
     27 H2          -7.5660    -1.4550     1.3900 h1         1 J8S       0.067367
     28 H3          -8.4340    -2.1000    -0.0310 h1         1 J8S       0.067367
     29 H4          -6.9010    -2.8560     0.4900 h1         1 J8S       0.067367
     30 H5          -5.2740    -1.7200     1.8540 ha         1 J8S       0.119000
     31 H6           1.4200    -1.5170    -1.8470 hc         1 J8S       0.051450
     32 H7           1.0640     0.2010    -1.7040 hc         1 J8S       0.051450
     33 H8           3.8520    -0.9600    -2.2760 hc         1 J8S       0.046700
     34 H9           3.5670     0.7520    -2.0940 hc         1 J8S       0.046700
     35 H11          8.8180     0.3720     0.5720 ha         1 J8S       0.112000
     36 H12          7.5930     2.3830    -0.2460 ha         1 J8S       0.111500
     37 H13          3.5530     0.8450     1.0920 hc         1 J8S       0.051450
     38 H14          2.3620     1.6280     0.0600 hc         1 J8S       0.051450
     39 H15         -2.1910     1.1910    -2.7130 h1         1 J8S       0.044033
     40 H16         -2.8790     2.6110    -1.8780 h1         1 J8S       0.044033
     41 H17         -1.1420     2.5430    -2.2380 h1         1 J8S       0.044033
     42 H18         -0.6890    -1.1080    -0.5930 h1         1 J8S       0.053950
     43 H19          0.4940    -1.9710     0.3840 h1         1 J8S       0.053950
     44 H20          3.0410    -1.3740     0.0480 hc         1 J8S       0.047700
     45 H21          5.4770    -2.1200    -0.5450 ha         1 J8S       0.110000
     46 H22          5.3150     2.1500    -1.2110 ha         1 J8S       0.110000
     47 H23          1.8290    -0.4570     2.2480 h1         1 J8S       0.053950
     48 H24          1.3810     1.2550     2.2630 h1         1 J8S       0.053950
     49 H25         -3.0470    -1.3570     2.8140 ha         1 J8S       0.123000
     50 H10          7.7560    -1.8790     0.4200 ha         1 J8S       0.111500
@<TRIPOS>BOND
     1     1     2 ar  
     2     1    20 ar  
     3     1    26 1   
     4     2     4 ar  
     5     2    25 1   
     6     3    25 1   
     7     3    27 1   
     8     3    28 1   
     9     3    29 1   
    10     4    21 ar  
    11     4    30 1   
    12     5    13 1   
    13     5    20 ar  
    14     5    21 ar  
    15     6    14 1   
    16     6    15 1   
    17     6    31 1   
    18     6    32 1   
    19     7    15 1   
    20     7    16 1   
    21     7    33 1   
    22     7    34 1   
    23     8     9 ar  
    24     8    17 ar  
    25     8    50 1   
    26     9    10 ar  
    27     9    35 1   
    28    10    18 ar  
    29    10    36 1   
    30    11    15 1   
    31    11    19 1   
    32    11    37 1   
    33    11    38 1   
    34    12    24 1   
    35    12    39 1   
    36    12    40 1   
    37    12    41 1   
    38    13    22 1   
    39    13    23 2   
    40    14    22 1   
    41    14    42 1   
    42    14    43 1   
    43    15    44 1   
    44    16    17 ar  
    45    16    18 ar  
    46    17    45 1   
    47    18    46 1   
    48    19    22 1   
    49    19    47 1   
    50    19    48 1   
    51    20    24 1   
    52    21    49 1   
@<TRIPOS>SUBSTRUCTURE
     1 J8S         1 TEMP              0 ****  ****    0 ROOT
