@<TRIPOS>MOLECULE
J8U
   47    48     1     0     0
SMALL
No Charge or Current Charge


@<TRIPOS>ATOM
      1 C10         30.4960     7.9690     1.3810 c3         1 J8U       0.211100
      2 C13         31.7350    16.5860     3.2690 ca         1 J8U      -0.006800
      3 C17         30.6350    18.7650     3.5050 ca         1 J8U      -0.068500
      4 C20         32.9680    17.2090     3.5820 ca         1 J8U      -0.110000
      5 C21         31.9290    20.7800     4.0940 cg         1 J8U       0.325000
      6 C24         26.3040     7.5400    -1.6320 c3         1 J8U       0.150600
      7 C01         30.1540    11.4470     0.0180 ca         1 J8U      -0.210000
      8 C02         30.1040    10.4310     0.9900 ca         1 J8U       0.370000
      9 C03         30.2620    10.7830     2.3420 ca         1 J8U      -0.210000
     10 C04         30.4720    12.1200     2.7180 ca         1 J8U      -0.024000
     11 C05         30.5350    13.1310     1.7400 ca         1 J8U      -0.158800
     12 C06         30.3630    12.7860     0.3870 ca         1 J8U      -0.024000
     13 C08         28.9390     8.7210    -0.4760 c3         1 J8U       0.222800
     14 C09         27.4930     9.2700    -0.2910 c3         1 J8U       0.135800
     15 C11         30.7420    14.5640     2.1080 ce         1 J8U      -0.041200
     16 C12         31.6390    15.1310     2.9720 cf         1 J8U      -0.006900
     17 C14         32.5760    14.3180     3.6950 ch         1 J8U       0.297700
     18 C16         30.5730    17.3870     3.2330 ca         1 J8U      -0.110000
     19 C18         31.8650    19.3710     3.8170 ca         1 J8U      -0.020000
     20 C19         33.0310    18.5870     3.8530 ca         1 J8U      -0.068500
     21 C25         25.2690     9.7320    -1.2490 c3         1 J8U       0.150600
     22 N07         29.8890     9.0830     0.6150 nh         1 J8U      -0.817400
     23 N15         33.3460    13.6880     4.3080 n1         1 J8U      -0.473000
     24 N22         31.9750    21.9270     4.3130 n1         1 J8U      -0.452000
     25 N23         26.5380     8.9860    -1.4020 n3         1 J8U      -0.716600
     26 H1          29.8190     7.6370     2.1800 h1         1 J8U       0.040700
     27 H2          30.7080     7.1150     0.7240 h1         1 J8U       0.040700
     28 H3          31.4470     8.2820     1.8320 h1         1 J8U       0.040700
     29 H4          29.7230    19.3600     3.4770 ha         1 J8U       0.126500
     30 H5          33.8930    16.6370     3.6040 ha         1 J8U       0.124000
     31 H6          27.2350     7.0230    -1.8970 h1         1 J8U       0.032033
     32 H7          25.8850     7.0630    -0.7360 h1         1 J8U       0.032033
     33 H8          25.5990     7.3890    -2.4610 h1         1 J8U       0.032033
     34 H9          30.0400    11.2030    -1.0330 ha         1 J8U       0.119000
     35 H10         30.2060    10.0220     3.1150 ha         1 J8U       0.119000
     36 H11         30.5670    12.3670     3.7740 ha         1 J8U       0.115000
     37 H12         30.4000    13.5560    -0.3810 ha         1 J8U       0.115000
     38 H13         28.8790     7.6280    -0.5570 h1         1 J8U       0.060700
     39 H14         29.3290     9.0780    -1.4390 h1         1 J8U       0.060700
     40 H15         27.5690    10.3580    -0.1610 h1         1 J8U       0.039200
     41 H16         27.0950     8.8690     0.6510 h1         1 J8U       0.039200
     42 H17         30.0910    15.2400     1.5530 ha         1 J8U       0.174000
     43 H18         29.6050    16.9430     3.0110 ha         1 J8U       0.124000
     44 H19         33.9910    19.0440     4.0890 ha         1 J8U       0.126500
     45 H20         25.4600    10.8100    -1.1660 h1         1 J8U       0.032033
     46 H21         24.6160     9.5720    -2.1180 h1         1 J8U       0.032033
     47 H22         24.7300     9.4080    -0.3490 h1         1 J8U       0.032033
@<TRIPOS>BOND
     1     1    22 1   
     2     1    26 1   
     3     1    27 1   
     4     1    28 1   
     5     2     4 ar  
     6     2    16 1   
     7     2    18 ar  
     8     3    18 ar  
     9     3    19 ar  
    10     3    29 1   
    11     4    20 ar  
    12     4    30 1   
    13     5    19 1   
    14     5    24 3   
    15     6    25 1   
    16     6    31 1   
    17     6    32 1   
    18     6    33 1   
    19     7     8 ar  
    20     7    12 ar  
    21     7    34 1   
    22     8     9 ar  
    23     8    22 1   
    24     9    10 ar  
    25     9    35 1   
    26    10    11 ar  
    27    10    36 1   
    28    11    12 ar  
    29    11    15 1   
    30    12    37 1   
    31    13    14 1   
    32    13    22 1   
    33    13    38 1   
    34    13    39 1   
    35    14    25 1   
    36    14    40 1   
    37    14    41 1   
    38    15    16 2   
    39    15    42 1   
    40    16    17 1   
    41    17    23 3   
    42    18    43 1   
    43    19    20 ar  
    44    20    44 1   
    45    21    25 1   
    46    21    45 1   
    47    21    46 1   
    48    21    47 1   
@<TRIPOS>SUBSTRUCTURE
     1 J8U         1 TEMP              0 ****  ****    0 ROOT
