@<TRIPOS>MOLECULE
J8U
   47    48     1     0     0
SMALL
bcc


@<TRIPOS>ATOM
      1 C10         30.0670     8.1410     1.4360 c3         1 J8U       0.211100
      2 C13         31.7790    16.5780     3.3410 ca         1 J8U      -0.006800
      3 C17         30.7950    18.7780     3.1160 ca         1 J8U      -0.086500
      4 C20         32.9130    17.1700     3.9060 ca         1 J8U      -0.128000
      5 C21         32.0180    20.7650     3.8390 cg         1 J8U       0.235800
      6 C24         26.5480     7.4800    -1.8120 c3         1 J8U       0.150600
      7 C01         29.6150    11.6660     0.2550 ca         1 J8U      -0.228000
      8 C02         30.0110    10.5290     0.9940 ca         1 J8U       0.231600
      9 C03         30.7250    10.7670     2.1930 ca         1 J8U      -0.228000
     10 C04         31.0400    12.0400     2.6050 ca         1 J8U      -0.042000
     11 C05         30.6660    13.1720     1.8610 ca         1 J8U      -0.158800
     12 C06         29.9360    12.9310     0.6830 ca         1 J8U      -0.042000
     13 C08         28.9110     9.0070    -0.5770 c3         1 J8U       0.222800
     14 C09         27.4190     9.1050    -0.2630 c3         1 J8U       0.135800
     15 C11         30.9290    14.5420     2.2000 ce         1 J8U       0.008800
     16 C12         31.7040    15.1180     3.1580 cf         1 J8U      -0.006900
     17 C14         32.5300    14.3460     4.0200 ch         1 J8U       0.208500
     18 C16         30.7180    17.4080     2.9630 ca         1 J8U      -0.128000
     19 C18         31.9390    19.3520     3.6700 ca         1 J8U      -0.020000
     20 C19         32.9990    18.5390     4.0690 ca         1 J8U      -0.086500
     21 C25         25.2600     9.4030    -1.2500 c3         1 J8U       0.150600
     22 N07         29.7320     9.2670     0.5900 nh         1 J8U      -0.679000
     23 N15         33.2230    13.7570     4.7320 n1         1 J8U      -0.383800
     24 N22         32.0830    21.9080     3.9750 n1         1 J8U      -0.362800
     25 N23         26.5960     8.8770    -1.4330 n3         1 J8U      -0.716600
     26 H1          29.5710     8.1910     2.4090 h1         1 J8U       0.040700
     27 H2          29.7490     7.2240     0.9470 h1         1 J8U       0.040700
     28 H3          31.1430     8.0700     1.6050 h1         1 J8U       0.040700
     29 H4          29.9610    19.4010     2.8210 ha         1 J8U       0.144500
     30 H5          33.7540    16.5610     4.2140 ha         1 J8U       0.142000
     31 H6          27.5420     7.0990    -2.0470 h1         1 J8U       0.032033
     32 H7          26.1190     6.8380    -1.0280 h1         1 J8U       0.032033
     33 H8          25.9390     7.3630    -2.7090 h1         1 J8U       0.032033
     34 H9          29.0450    11.5700    -0.6580 ha         1 J8U       0.137000
     35 H10         31.0330     9.9430     2.8200 ha         1 J8U       0.137000
     36 H11         31.5720    12.1370     3.5400 ha         1 J8U       0.133000
     37 H12         29.6080    13.7730     0.0850 ha         1 J8U       0.133000
     38 H13         29.1690     8.0130    -0.9420 h1         1 J8U       0.060700
     39 H14         29.1650     9.6960    -1.3830 h1         1 J8U       0.060700
     40 H15         27.2140    10.1120     0.1100 h1         1 J8U       0.039200
     41 H16         27.1720     8.4130     0.5610 h1         1 J8U       0.039200
     42 H17         30.4230    15.2450     1.5460 ha         1 J8U       0.124000
     43 H18         29.8040    16.9860     2.5670 ha         1 J8U       0.142000
     44 H19         33.8890    18.9760     4.5010 ha         1 J8U       0.144500
     45 H20         25.3030    10.4700    -1.0280 h1         1 J8U       0.032033
     46 H21         24.6810     9.2760    -2.1660 h1         1 J8U       0.032033
     47 H22         24.7040     8.9120    -0.4350 h1         1 J8U       0.032033
@<TRIPOS>BOND
     1     1    22 1   
     2     1    26 1   
     3     1    27 1   
     4     1    28 1   
     5     2     4 ar  
     6     2    16 1   
     7     2    18 ar  
     8     3    18 ar  
     9     3    19 ar  
    10     3    29 1   
    11     4    20 ar  
    12     4    30 1   
    13     5    19 1   
    14     5    24 3   
    15     6    25 1   
    16     6    31 1   
    17     6    32 1   
    18     6    33 1   
    19     7     8 ar  
    20     7    12 ar  
    21     7    34 1   
    22     8     9 ar  
    23     8    22 1   
    24     9    10 ar  
    25     9    35 1   
    26    10    11 ar  
    27    10    36 1   
    28    11    12 ar  
    29    11    15 1   
    30    12    37 1   
    31    13    14 1   
    32    13    22 1   
    33    13    38 1   
    34    13    39 1   
    35    14    25 1   
    36    14    40 1   
    37    14    41 1   
    38    15    16 2   
    39    15    42 1   
    40    16    17 1   
    41    17    23 3   
    42    18    43 1   
    43    19    20 ar  
    44    20    44 1   
    45    21    25 1   
    46    21    45 1   
    47    21    46 1   
    48    21    47 1   
@<TRIPOS>SUBSTRUCTURE
     1 J8U         1 TEMP              0 ****  ****    0 ROOT
