@<TRIPOS>MOLECULE
J8V
   42    44     1     0     0
SMALL
bcc


@<TRIPOS>ATOM
      1 C14          1.4000    -0.1410     0.3460 cc         1 J8V       0.232100
      2 C13          0.5780     0.6820     1.0590 cd         1 J8V      -0.315400
      3 C01         -3.8250     0.2000    -0.5320 ca         1 J8V      -0.150000
      4 C02         -5.1800    -0.0910    -0.5900 ca         1 J8V      -0.116600
      5 C03         -5.7990    -0.6310     0.5340 ca         1 J8V      -0.119000
      6 C04         -5.0610    -0.8710     1.6820 ca         1 J8V      -0.147000
      7 C05         -3.7030    -0.5830     1.7420 ca         1 J8V      -0.168000
      8 C06         -3.0770    -0.0390     0.6210 ca         1 J8V       0.023600
      9 C08         -0.7730     0.2310     1.5250 c          1 J8V       0.711300
     10 C15          2.7050     0.2810    -0.0320 cc         1 J8V      -0.235000
     11 C16          3.0960     1.5150     0.3570 cd         1 J8V      -0.020600
     12 C18          1.0040     1.9870     1.4760 c          1 J8V       0.728700
     13 C20          4.4490     2.0770     0.0130 c3         1 J8V       0.715100
     14 C25          1.7460    -2.3150    -0.5160 ca         1 J8V       0.092100
     15 C26          2.6320    -2.9790     0.3180 ca         1 J8V      -0.128500
     16 C27          3.4220    -3.9880    -0.2130 ca         1 J8V      -0.120500
     17 C28          3.3180    -4.3280    -1.5560 ca         1 J8V      -0.130000
     18 C29          2.4210    -3.6530    -2.3730 ca         1 J8V      -0.120500
     19 C30          1.6290    -2.6360    -1.8570 ca         1 J8V      -0.128500
     20 F21          4.3260     3.2200    -0.6660 f          1 J8V      -0.224300
     21 F22          5.1450     2.3450     1.1200 f          1 J8V      -0.224300
     22 F23          5.1600     1.2360    -0.7260 f          1 J8V      -0.224300
     23 N07         -1.7160     0.2900     0.5610 ns         1 J8V      -0.441100
     24 N17          2.2880     2.3230     1.0790 ns         1 J8V      -0.433100
     25 O10         -7.1800    -0.1130    -1.8410 o          1 J8V      -0.826300
     26 O11         -5.3370     0.6650    -2.8230 o          1 J8V      -0.826300
     27 O12         -0.9550    -0.1310     2.6720 o          1 J8V      -0.583100
     28 O19          0.3270     2.7720     2.1250 o          1 J8V      -0.591500
     29 O24          0.9140    -1.3410     0.0030 os         1 J8V      -0.224200
     30 H2          -3.3440     0.6230    -1.4060 ha         1 J8V       0.142000
     31 H3          -6.8550    -0.8630     0.5060 ha         1 J8V       0.146000
     32 H4          -5.5420    -1.2930     2.5550 ha         1 J8V       0.106000
     33 H5          -3.1550    -0.7850     2.6470 ha         1 J8V       0.139000
     34 H6           3.3540    -0.3490    -0.6200 ha         1 J8V       0.174000
     35 H7           2.7010    -2.7170     1.3670 ha         1 J8V       0.155000
     36 H8           4.1180    -4.5120     0.4280 ha         1 J8V       0.135000
     37 H9           3.9330    -5.1180    -1.9650 ha         1 J8V       0.132000
     38 H10          2.3350    -3.9150    -3.4190 ha         1 J8V       0.135000
     39 H11          0.9270    -2.1040    -2.4860 ha         1 J8V       0.155000
     40 H12         -1.4040     0.6380    -0.3340 hn         1 J8V       0.314500
     41 H1           2.6040     3.2420     1.3650 hn         1 J8V       0.338500
     42 C09         -5.9700     0.1780    -1.8670 c          1 J8V       0.925200
@<TRIPOS>BOND
     1     1     2 2   
     2     1    10 1   
     3     1    29 1   
     4     2     9 1   
     5     2    12 1   
     6     3     4 ar  
     7     3     8 ar  
     8     3    30 1   
     9     4     5 ar  
    10     4    42 1   
    11     5     6 ar  
    12     5    31 1   
    13     6     7 ar  
    14     6    32 1   
    15     7     8 ar  
    16     7    33 1   
    17     8    23 1   
    18     9    23 1   
    19     9    27 2   
    20    10    11 2   
    21    10    34 1   
    22    11    13 1   
    23    11    24 1   
    24    12    24 1   
    25    12    28 2   
    26    13    20 1   
    27    13    21 1   
    28    13    22 1   
    29    14    15 ar  
    30    14    19 ar  
    31    14    29 1   
    32    15    16 ar  
    33    15    35 1   
    34    16    17 ar  
    35    16    36 1   
    36    17    18 ar  
    37    17    37 1   
    38    18    19 ar  
    39    18    38 1   
    40    19    39 1   
    41    23    40 1   
    42    24    41 1   
    43    25    42 1   
    44    26    42 1   
@<TRIPOS>SUBSTRUCTURE
     1 J8V         1 TEMP              0 ****  ****    0 ROOT
