@<TRIPOS>MOLECULE
J8V
   42    44     1     0     0
SMALL
No Charge or Current Charge


@<TRIPOS>ATOM
      1 C14          1.5140     0.7520    -0.1400 cc         1 J8V       0.232100
      2 C13          0.9340     1.0070     1.1050 cd         1 J8V      -0.315400
      3 C01         -3.2210    -0.6050    -0.7490 ca         1 J8V      -0.132000
      4 C02         -4.5330    -1.1270    -0.8590 ca         1 J8V      -0.116600
      5 C03         -5.2360    -1.4270     0.3300 ca         1 J8V      -0.101000
      6 C04         -4.6420    -1.2150     1.5850 ca         1 J8V      -0.129000
      7 C05         -3.3410    -0.6970     1.6760 ca         1 J8V      -0.150000
      8 C06         -2.6210    -0.3800     0.5050 ca         1 J8V      -0.069000
      9 C08         -0.4660     0.6240     1.5170 c          1 J8V       0.644300
     10 C15          2.8380     1.1620    -0.4790 cc         1 J8V      -0.285000
     11 C16          3.6090     1.8230     0.4460 cd         1 J8V      -0.020600
     12 C18          1.7830     1.7160     2.1080 c          1 J8V       0.586200
     13 C20          5.0380     2.3160     0.2500 c3         1 J8V       0.351200
     14 C25          1.0410    -1.3140    -1.0190 ca         1 J8V       0.092100
     15 C26          1.9060    -1.9480    -0.0850 ca         1 J8V      -0.110500
     16 C27          2.0510    -3.3470    -0.0950 ca         1 J8V      -0.102500
     17 C28          1.3430    -4.1260    -1.0230 ca         1 J8V      -0.112000
     18 C29          0.4850    -3.5080    -1.9470 ca         1 J8V      -0.102500
     19 C30          0.3380    -2.1110    -1.9420 ca         1 J8V      -0.110500
     20 F21          5.1520     3.6380     0.5150 f          1 J8V      -0.103000
     21 F22          5.9030     1.6730     1.0670 f          1 J8V      -0.103000
     22 F23          5.4800     2.1300    -1.0150 f          1 J8V      -0.103000
     23 N07         -1.2930     0.1370     0.5090 ns         1 J8V      -0.115000
     24 N17          3.0480     2.0570     1.6870 ns         1 J8V      -0.366100
     25 O10         -6.3040    -1.8260    -2.2670 o          1 J8V      -0.721000
     26 O11         -4.5350    -1.0770    -3.2270 o          1 J8V      -0.721000
     27 O12         -0.8780     0.7510     2.6630 o          1 J8V      -0.583100
     28 O19          1.4470     2.0170     3.2410 o          1 J8V      -0.516000
     29 O24          0.8120     0.0580    -1.0870 os         1 J8V      -0.224200
     30 H2          -2.6610    -0.3690    -1.6510 ha         1 J8V       0.124000
     31 H3          -6.2460    -1.8300     0.2860 ha         1 J8V       0.128000
     32 H4          -5.1930    -1.4570     2.4910 ha         1 J8V       0.088000
     33 H5          -2.9100    -0.5610     2.6630 ha         1 J8V       0.121000
     34 H6           3.2150     0.9280    -1.4710 ha         1 J8V       0.224000
     35 H7           2.4730    -1.3860     0.6520 ha         1 J8V       0.137000
     36 H8           2.7150    -3.8270     0.6210 ha         1 J8V       0.117000
     37 H9           1.4580    -5.2080    -1.0260 ha         1 J8V       0.114000
     38 H10         -0.0650    -4.1110    -2.6660 ha         1 J8V       0.117000
     39 H11         -0.3300    -1.6390    -2.6590 ha         1 J8V       0.137000
     40 H12         -0.8680     0.1390    -0.4060 hn         1 J8V       0.148000
     41 H1           3.5900     2.5380     2.3960 hn         1 J8V       0.338500
     42 C09         -5.1730    -1.3620    -2.2220 c          1 J8V       0.714600
@<TRIPOS>BOND
     1     1     2 2   
     2     1    10 1   
     3     1    29 1   
     4     2     9 1   
     5     2    12 1   
     6     3     4 ar  
     7     3     8 ar  
     8     3    30 1   
     9     4     5 ar  
    10     4    42 1   
    11     5     6 ar  
    12     5    31 1   
    13     6     7 ar  
    14     6    32 1   
    15     7     8 ar  
    16     7    33 1   
    17     8    23 1   
    18     9    23 1   
    19     9    27 2   
    20    10    11 2   
    21    10    34 1   
    22    11    13 1   
    23    11    24 1   
    24    12    24 1   
    25    12    28 2   
    26    13    20 1   
    27    13    21 1   
    28    13    22 1   
    29    14    15 ar  
    30    14    19 ar  
    31    14    29 1   
    32    15    16 ar  
    33    15    35 1   
    34    16    17 ar  
    35    16    36 1   
    36    17    18 ar  
    37    17    37 1   
    38    18    19 ar  
    39    18    38 1   
    40    19    39 1   
    41    23    40 1   
    42    24    41 1   
    43    25    42 1   
    44    26    42 1   
@<TRIPOS>SUBSTRUCTURE
     1 J8V         1 TEMP              0 ****  ****    0 ROOT
