@<TRIPOS>MOLECULE
J8W
   20    19     1     0     0
SMALL
bcc


@<TRIPOS>ATOM
      1 N            1.3620     1.2810    -1.1190 n8         1 J8W      -0.909800
      2 CA           1.9400     0.7180     0.0830 c3         1 J8W       0.024500
      3 CB           1.1960    -0.4960     0.6440 c3         1 J8W       0.111400
      4 OG          -0.1520    -0.1370     0.9780 os         1 J8W      -0.442900
      5 C            3.4110     0.2790    -0.1360 c          1 J8W       0.929600
      6 O            3.8060     0.1590    -1.3100 o          1 J8W      -0.854300
      7 C1          -2.4620     0.0500     0.6650 c3         1 J8W      -0.288400
      8 C2          -1.1730    -0.5880     0.2530 c          1 J8W       0.678100
      9 C3          -2.7230     1.3470    -0.1510 c          1 J8W       0.946600
     10 O7          -1.0690    -1.4020    -0.6330 o          1 J8W      -0.599000
     11 O8          -3.7400     1.9820     0.1630 o          1 J8W      -0.833800
     12 O9          -1.9070     1.6210    -1.0530 o          1 J8W      -0.833800
     13 H1           1.5940     0.6910    -1.9060 hn         1 J8W       0.356300
     14 H2           0.3510     1.3390    -1.0620 hn         1 J8W       0.356300
     15 H4           1.9440     1.4870     0.8650 h1         1 J8W       0.046700
     16 H5           1.2000    -1.3220    -0.0690 h1         1 J8W       0.044200
     17 H6           1.6590    -0.8330     1.5710 h1         1 J8W       0.044200
     18 H8          -3.2800    -0.6490     0.4800 hc         1 J8W       0.040700
     19 H9          -2.4710     0.2890     1.7300 hc         1 J8W       0.040700
     20 OXT          4.0630     0.0480     0.9010 o          1 J8W      -0.854300
@<TRIPOS>BOND
     1     1     2 1   
     2     1    13 1   
     3     1    14 1   
     4     2     3 1   
     5     2     5 1   
     6     2    15 1   
     7     3     4 1   
     8     3    16 1   
     9     3    17 1   
    10     4     8 1   
    11     5     6 1   
    12     5    20 1   
    13     7     8 1   
    14     7     9 1   
    15     7    18 1   
    16     7    19 1   
    17     8    10 2   
    18     9    11 1   
    19     9    12 1   
@<TRIPOS>SUBSTRUCTURE
     1 J8W         1 TEMP              0 ****  ****    0 ROOT
