@<TRIPOS>MOLECULE
J8W
   20    19     1     0     0
SMALL
No Charge or Current Charge


@<TRIPOS>ATOM
      1 N            1.4890     1.0430    -1.3180 n8         1 J8W      -0.909800
      2 CA           1.8800     0.6530     0.0980 c3         1 J8W       0.024500
      3 CB           1.1710    -0.6540     0.5620 c3         1 J8W       0.111400
      4 OG          -0.2060    -0.3870     0.9190 os         1 J8W      -0.442900
      5 C            3.4320     0.5310     0.4030 c          1 J8W       0.929600
      6 O            4.1080    -0.2400    -0.2740 o          1 J8W      -0.854300
      7 C1          -2.5330    -0.0310     0.5400 c3         1 J8W      -0.288400
      8 C2          -1.1720    -0.2880    -0.0520 c          1 J8W       0.678100
      9 C3          -2.8930     1.3390     0.0350 c          1 J8W       0.946600
     10 O7          -0.9770    -0.4900    -1.2440 o          1 J8W      -0.599000
     11 O8          -2.5380     2.3070     0.6920 o          1 J8W      -0.833800
     12 O9          -3.5170     1.4340    -1.0130 o          1 J8W      -0.833800
     13 H1           2.0290     0.4670    -1.9740 hn         1 J8W       0.356300
     14 H2           0.5190     0.7380    -1.4780 hn         1 J8W       0.356300
     15 H4           1.5100     1.4530     0.7530 h1         1 J8W       0.046700
     16 H5           1.2510    -1.4380    -0.2040 h1         1 J8W       0.044200
     17 H6           1.6960    -1.0220     1.4540 h1         1 J8W       0.044200
     18 H8          -3.2040    -0.7860     0.1170 hc         1 J8W       0.040700
     19 H9          -2.4260    -0.0330     1.6320 hc         1 J8W       0.040700
     20 OXT          3.9310     1.2700     1.2450 o          1 J8W      -0.854300
@<TRIPOS>BOND
     1     1     2 1   
     2     1    13 1   
     3     1    14 1   
     4     2     3 1   
     5     2     5 1   
     6     2    15 1   
     7     3     4 1   
     8     3    16 1   
     9     3    17 1   
    10     4     8 1   
    11     5     6 1   
    12     5    20 1   
    13     7     8 1   
    14     7     9 1   
    15     7    18 1   
    16     7    19 1   
    17     8    10 2   
    18     9    11 1   
    19     9    12 1   
@<TRIPOS>SUBSTRUCTURE
     1 J8W         1 TEMP              0 ****  ****    0 ROOT
