@<TRIPOS>MOLECULE
J8X
   41    43     1     0     0
SMALL
abcg2


@<TRIPOS>ATOM
      1 C10         30.6250     7.9670     1.0800 c3         1 J8X       0.209100
      2 C13         32.2370    16.1790     3.6940 cc         1 J8X       0.602900
      3 C21         31.2390    19.4910     3.1570 ca         1 J8X      -0.093000
      4 C22         31.8240    20.5860     3.7830 ca         1 J8X      -0.096000
      5 C24         33.3850    19.1890     5.0210 ca         1 J8X      -0.047000
      6 C01         29.5770    11.5400     0.6250 ca         1 J8X      -0.209000
      7 C02         30.2480    10.3640     1.0400 ca         1 J8X       0.391000
      8 C03         31.2800    10.5280     2.0010 ca         1 J8X      -0.209000
      9 C04         31.6170    11.7610     2.4960 ca         1 J8X      -0.016000
     10 C05         30.9590    12.9330     2.0770 ca         1 J8X      -0.173800
     11 C06         29.9330    12.7650     1.1250 ca         1 J8X      -0.016000
     12 C08         28.9940     8.9120    -0.5080 c3         1 J8X       0.226800
     13 C09         27.6310     8.4670    -0.0130 c3         1 J8X       0.139600
     14 C11         31.2320    14.2630     2.5140 cf         1 J8X      -0.005200
     15 C12         32.1180    14.7630     3.4260 ce         1 J8X      -0.101300
     16 C14         33.0010    13.9650     4.2010 cg         1 J8X       0.310700
     17 C18         31.7670    18.2640     3.4970 ca         1 J8X       0.026100
     18 C19         32.8090    18.0860     4.4020 ca         1 J8X       0.063400
     19 C23         32.8760    20.4370     4.6940 ca         1 J8X      -0.126000
     20 N07         29.9570     9.1400     0.5520 nh         1 J8X      -0.812400
     21 N15         33.7220    13.3330     4.8440 n1         1 J8X      -0.460000
     22 N20         33.0770    16.7350     4.5000 nd         1 J8X      -0.563100
     23 O16         27.0560     9.4920     0.7590 oh         1 J8X      -0.651000
     24 O17         31.4090    17.0310     3.0510 os         1 J8X      -0.285700
     25 H1          31.6950     7.9740     0.8620 h1         1 J8X       0.041033
     26 H2          30.4940     7.8740     2.1590 h1         1 J8X       0.041033
     27 H3          30.1980     7.0790     0.6210 h1         1 J8X       0.041033
     28 H4          30.4270    19.6020     2.4520 ha         1 J8X       0.132000
     29 H5          31.4560    21.5780     3.5590 ha         1 J8X       0.117000
     30 H6          34.1980    19.0770     5.7260 ha         1 J8X       0.135000
     31 H7          28.7570    11.4950    -0.0750 ha         1 J8X       0.120000
     32 H8          31.8340     9.6730     2.3580 ha         1 J8X       0.120000
     33 H9          32.4190    11.7990     3.2180 ha         1 J8X       0.116500
     34 H10         29.3910    13.6380     0.7800 ha         1 J8X       0.116500
     35 H11         29.3880     8.1330    -1.1630 h1         1 J8X       0.059200
     36 H12         28.9000     9.8020    -1.1300 h1         1 J8X       0.059200
     37 H13         27.0230     8.2230    -0.8940 h1         1 J8X       0.023200
     38 H14         27.7410     7.5370     0.5600 h1         1 J8X       0.023200
     39 H15         30.6190    15.0100     2.0220 ha         1 J8X       0.185000
     40 H16         33.2990    21.3200     5.1540 ha         1 J8X       0.118000
     41 H17         26.2310     9.1650     1.1290 ho         1 J8X       0.447000
@<TRIPOS>BOND
     1     1    20 1   
     2     1    25 1   
     3     1    26 1   
     4     1    27 1   
     5     2    15 1   
     6     2    22 2   
     7     2    24 1   
     8     3     4 ar  
     9     3    17 ar  
    10     3    28 1   
    11     4    19 ar  
    12     4    29 1   
    13     5    18 ar  
    14     5    19 ar  
    15     5    30 1   
    16     6     7 ar  
    17     6    11 ar  
    18     6    31 1   
    19     7     8 ar  
    20     7    20 1   
    21     8     9 ar  
    22     8    32 1   
    23     9    10 ar  
    24     9    33 1   
    25    10    11 ar  
    26    10    14 1   
    27    11    34 1   
    28    12    13 1   
    29    12    20 1   
    30    12    35 1   
    31    12    36 1   
    32    13    23 1   
    33    13    37 1   
    34    13    38 1   
    35    14    15 2   
    36    14    39 1   
    37    15    16 1   
    38    16    21 3   
    39    17    18 ar  
    40    17    24 1   
    41    18    22 1   
    42    19    40 1   
    43    23    41 1   
@<TRIPOS>SUBSTRUCTURE
     1 J8X         1 TEMP              0 ****  ****    0 ROOT
