@<TRIPOS>MOLECULE
J8X
   41    43     1     0     0
SMALL
No Charge or Current Charge


@<TRIPOS>ATOM
      1 C10         30.5650     7.8880     1.2280 c3         1 J8X       0.209100
      2 C13         32.2510    16.2930     3.6780 cc         1 J8X       0.602900
      3 C21         31.7640    19.6820     2.9190 ca         1 J8X      -0.093000
      4 C22         32.1820    20.7720     3.7110 ca         1 J8X      -0.096000
      5 C24         33.1250    19.2280     5.3700 ca         1 J8X      -0.047000
      6 C01         29.2740    11.4260     1.0900 ca         1 J8X      -0.209000
      7 C02         30.2210    10.3870     1.1150 ca         1 J8X       0.391000
      8 C03         31.5180    10.6760     1.5780 ca         1 J8X      -0.209000
      9 C04         31.8610    11.9670     2.0130 ca         1 J8X      -0.016000
     10 C05         30.9030    13.0020     2.0040 ca         1 J8X      -0.173800
     11 C06         29.6100    12.7200     1.5230 ca         1 J8X      -0.016000
     12 C08         28.9830     8.8650    -0.4980 c3         1 J8X       0.226800
     13 C09         27.6200     8.1670    -0.2030 c3         1 J8X       0.139600
     14 C11         31.2140    14.3850     2.4400 cf         1 J8X      -0.005200
     15 C12         32.0730    14.8650     3.3950 ce         1 J8X      -0.101300
     16 C14         32.8330    14.0090     4.2530 cg         1 J8X       0.310700
     17 C18         32.0460    18.3930     3.3860 ca         1 J8X       0.026100
     18 C19         32.6990    18.1650     4.5600 ca         1 J8X       0.063400
     19 C23         32.8610    20.5450     4.9330 ca         1 J8X      -0.126000
     20 N07         29.8810     9.0820     0.6770 nh         1 J8X      -0.812400
     21 N15         33.4360    13.2740     4.9300 n1         1 J8X      -0.460000
     22 N20         32.8400    16.8130     4.7770 nd         1 J8X      -0.563100
     23 O16         26.7600     8.9730     0.6260 oh         1 J8X      -0.651000
     24 O17         31.7320    17.2240     2.7800 os         1 J8X      -0.285700
     25 H1          31.5250     7.7250     0.7210 h1         1 J8X       0.041033
     26 H2          30.7500     8.0120     2.3040 h1         1 J8X       0.041033
     27 H3          29.9510     6.9870     1.1000 h1         1 J8X       0.041033
     28 H4          31.2410    19.8360     1.9780 ha         1 J8X       0.132000
     29 H5          31.9820    21.7900     3.3820 ha         1 J8X       0.117000
     30 H6          33.6450    19.0400     6.3060 ha         1 J8X       0.135000
     31 H7          28.2640    11.2350     0.7460 ha         1 J8X       0.120000
     32 H8          32.2800     9.9030     1.5870 ha         1 J8X       0.120000
     33 H9          32.8830    12.1540     2.3280 ha         1 J8X       0.116500
     34 H10         28.8540    13.5020     1.4960 ha         1 J8X       0.116500
     35 H11         29.5160     8.2510    -1.2370 h1         1 J8X       0.059200
     36 H12         28.7790     9.8180    -1.0040 h1         1 J8X       0.059200
     37 H13         27.1230     7.9630    -1.1610 h1         1 J8X       0.023200
     38 H14         27.8090     7.1980     0.2760 h1         1 J8X       0.023200
     39 H15         30.6420    15.1320     1.8850 ha         1 J8X       0.185000
     40 H16         33.1810    21.3900     5.5400 ha         1 J8X       0.118000
     41 H17         25.9650     8.4310     0.8260 ho         1 J8X       0.447000
@<TRIPOS>BOND
     1     1    20 1   
     2     1    25 1   
     3     1    26 1   
     4     1    27 1   
     5     2    15 1   
     6     2    22 2   
     7     2    24 1   
     8     3     4 ar  
     9     3    17 ar  
    10     3    28 1   
    11     4    19 ar  
    12     4    29 1   
    13     5    18 ar  
    14     5    19 ar  
    15     5    30 1   
    16     6     7 ar  
    17     6    11 ar  
    18     6    31 1   
    19     7     8 ar  
    20     7    20 1   
    21     8     9 ar  
    22     8    32 1   
    23     9    10 ar  
    24     9    33 1   
    25    10    11 ar  
    26    10    14 1   
    27    11    34 1   
    28    12    13 1   
    29    12    20 1   
    30    12    35 1   
    31    12    36 1   
    32    13    23 1   
    33    13    37 1   
    34    13    38 1   
    35    14    15 2   
    36    14    39 1   
    37    15    16 1   
    38    16    21 3   
    39    17    18 ar  
    40    17    24 1   
    41    18    22 1   
    42    19    40 1   
    43    23    41 1   
@<TRIPOS>SUBSTRUCTURE
     1 J8X         1 TEMP              0 ****  ****    0 ROOT
