@<TRIPOS>MOLECULE
J8Y
   34    36     1     0     0
SMALL
abcg2


@<TRIPOS>ATOM
      1 C14         -4.7040     1.6860     0.0460 ca         1 J8Y      -0.127000
      2 C11         -1.9480     1.1830    -0.0080 ca         1 J8Y      -0.012000
      3 C12         -2.4250     2.4970     0.0080 ca         1 J8Y      -0.117000
      4 C13         -3.7930     2.7280     0.0360 ca         1 J8Y      -0.087000
      5 C02          1.9090    -0.5480    -0.0340 c          1 J8Y       0.568200
      6 C04          4.3170    -0.2650    -0.0340 cc         1 J8Y      -0.031600
      7 C05          4.2260     1.0860    -0.0420 cd         1 J8Y      -0.236000
      8 C06          2.9370     1.6550    -0.0430 cd         1 J8Y      -0.033000
      9 C07          1.8020     0.8970    -0.0370 cc         1 J8Y      -0.276400
     10 C08          0.4890     1.6170    -0.0280 c          1 J8Y       0.632300
     11 C15         -4.2310     0.3760     0.0300 ca         1 J8Y      -0.118500
     12 C16         -2.8640     0.1310     0.0010 ca         1 J8Y      -0.114000
     13 C17         -5.1400    -0.7630     0.0380 cc         1 J8Y       0.460000
     14 F23          5.6980    -1.8860    -1.0080 f          1 J8Y      -0.096667
     15 F24          6.6550    -0.1750    -0.1140 f          1 J8Y      -0.096667
     16 F25          5.7610    -1.6870     1.1320 f          1 J8Y      -0.096667
     17 N03          3.2010    -1.0270    -0.0310 ns         1 J8Y      -0.339100
     18 N10         -0.6030     0.8210    -0.0310 ns         1 J8Y      -0.144000
     19 N18         -6.4600    -0.7280     0.2420 na         1 J8Y      -0.211700
     20 N19         -6.9410    -1.9570     0.1770 nc         1 J8Y      -0.205800
     21 N20         -5.9480    -2.7200    -0.0590 nd         1 J8Y      -0.041000
     22 N21         -4.8190    -2.0230    -0.1530 nd         1 J8Y      -0.387000
     23 O01          0.9760    -1.3500    -0.0340 o          1 J8Y      -0.562000
     24 O09          0.4550     2.8360    -0.0170 o          1 J8Y      -0.596100
     25 H1          -5.7640     1.9050     0.0580 ha         1 J8Y       0.107000
     26 H2          -1.7470     3.3330    -0.0000 ha         1 J8Y       0.152000
     27 H3          -4.1500     3.7490     0.0470 ha         1 J8Y       0.120000
     28 H4           5.1010     1.7160    -0.0440 ha         1 J8Y       0.226000
     29 H6           2.8500     2.7330    -0.0460 ha         1 J8Y       0.225000
     30 H7          -2.5070    -0.8910    -0.0090 ha         1 J8Y       0.147000
     31 H8          -0.4030    -0.1790    -0.0370 hn         1 J8Y       0.199000
     32 H9          -7.0740     0.0490     0.4420 hn         1 J8Y       0.387000
     33 H5           3.2750    -2.0390    -0.0320 hn         1 J8Y       0.350500
     34 C22          5.6270    -1.0050    -0.0070 c3         1 J8Y       0.356200
@<TRIPOS>BOND
     1     1     4 ar  
     2     1    11 ar  
     3     1    25 1   
     4     2     3 ar  
     5     2    12 ar  
     6     2    18 1   
     7     3     4 ar  
     8     3    26 1   
     9     4    27 1   
    10     5     9 1   
    11     5    17 1   
    12     5    23 2   
    13     6     7 2   
    14     6    17 1   
    15     6    34 1   
    16     7     8 1   
    17     7    28 1   
    18     8     9 2   
    19     8    29 1   
    20     9    10 1   
    21    10    18 1   
    22    10    24 2   
    23    11    12 ar  
    24    11    13 1   
    25    12    30 1   
    26    13    19 1   
    27    13    22 2   
    28    14    34 1   
    29    15    34 1   
    30    16    34 1   
    31    17    33 1   
    32    18    31 1   
    33    19    20 1   
    34    19    32 1   
    35    20    21 2   
    36    21    22 1   
@<TRIPOS>SUBSTRUCTURE
     1 J8Y         1 TEMP              0 ****  ****    0 ROOT
