@<TRIPOS>MOLECULE
J8Y
   34    36     1     0     0
SMALL
No Charge or Current Charge


@<TRIPOS>ATOM
      1 C14         -4.7650     1.6530     0.0700 ca         1 J8Y      -0.127000
      2 C11         -1.9750     1.2170     0.0290 ca         1 J8Y      -0.012000
      3 C12         -2.4930     2.5300     0.0430 ca         1 J8Y      -0.117000
      4 C13         -3.8800     2.7420     0.0630 ca         1 J8Y      -0.087000
      5 C02          1.9460    -0.5040     0.0010 c          1 J8Y       0.568200
      6 C04          4.3950    -0.2750    -0.0420 cc         1 J8Y      -0.031600
      7 C05          4.3180     1.1040    -0.0710 cd         1 J8Y      -0.236000
      8 C06          3.0290     1.7470    -0.0650 cd         1 J8Y      -0.033000
      9 C07          1.8650     0.9800    -0.0300 cc         1 J8Y      -0.276400
     10 C08          0.5580     1.7040    -0.0250 c          1 J8Y       0.632300
     11 C15         -4.2720     0.3300     0.0580 ca         1 J8Y      -0.118500
     12 C16         -2.8720     0.1310     0.0380 ca         1 J8Y      -0.114000
     13 C17         -5.1870    -0.8240     0.0650 cc         1 J8Y       0.460000
     14 F23          5.7240    -1.9290    -1.1170 f          1 J8Y      -0.096667
     15 F24          6.7850    -0.3400    -0.0780 f          1 J8Y      -0.096667
     16 F25          5.7580    -1.8840     1.0600 f          1 J8Y      -0.096667
     17 N03          3.2180    -1.0070    -0.0080 ns         1 J8Y      -0.339100
     18 N10         -0.5840     0.9140     0.0100 ns         1 J8Y      -0.144000
     19 N18         -6.5510    -0.7730     0.0840 na         1 J8Y      -0.211700
     20 N19         -7.0750    -2.0250     0.0860 nc         1 J8Y      -0.205800
     21 N20         -6.0340    -2.8130     0.0690 nd         1 J8Y      -0.041000
     22 N21         -4.8570    -2.1010     0.0560 nd         1 J8Y      -0.387000
     23 O01          0.9990    -1.2720     0.0330 o          1 J8Y      -0.562000
     24 O09          0.5060     2.9290    -0.0510 o          1 J8Y      -0.596100
     25 H1          -5.8340     1.8500     0.0860 ha         1 J8Y       0.107000
     26 H2          -1.8430     3.4000     0.0400 ha         1 J8Y       0.152000
     27 H3          -4.2720     3.7570     0.0740 ha         1 J8Y       0.120000
     28 H4           5.2220     1.7090    -0.0980 ha         1 J8Y       0.226000
     29 H6           2.9840     2.8360    -0.0880 ha         1 J8Y       0.225000
     30 H7          -2.4730    -0.8820     0.0280 ha         1 J8Y       0.147000
     31 H8          -0.3860    -0.0790     0.0260 hn         1 J8Y       0.199000
     32 H9          -7.1270     0.0580     0.0950 hn         1 J8Y       0.387000
     33 H5           3.2620    -2.0200     0.0130 hn         1 J8Y       0.350500
     34 C22          5.6710    -1.1070    -0.0440 c3         1 J8Y       0.356200
@<TRIPOS>BOND
     1     1     4 ar  
     2     1    11 ar  
     3     1    25 1   
     4     2     3 ar  
     5     2    12 ar  
     6     2    18 1   
     7     3     4 ar  
     8     3    26 1   
     9     4    27 1   
    10     5     9 1   
    11     5    17 1   
    12     5    23 2   
    13     6     7 2   
    14     6    17 1   
    15     6    34 1   
    16     7     8 1   
    17     7    28 1   
    18     8     9 2   
    19     8    29 1   
    20     9    10 1   
    21    10    18 1   
    22    10    24 2   
    23    11    12 ar  
    24    11    13 1   
    25    12    30 1   
    26    13    19 1   
    27    13    22 2   
    28    14    34 1   
    29    15    34 1   
    30    16    34 1   
    31    17    33 1   
    32    18    31 1   
    33    19    20 1   
    34    19    32 1   
    35    20    21 2   
    36    21    22 1   
@<TRIPOS>SUBSTRUCTURE
     1 J8Y         1 TEMP              0 ****  ****    0 ROOT
