@<TRIPOS>MOLECULE
J91
   42    44     1     0     0
SMALL
No Charge or Current Charge


@<TRIPOS>ATOM
      1 C14          2.6020     8.1530   -21.1040 c          1 J91       0.705600
      2 C11         -0.9060     5.5040   -17.4950 ca         1 J91      -0.133000
      3 C10          0.4780     5.2930   -17.6170 ca         1 J91      -0.097000
      4 C12         -1.4410     6.7880   -17.6960 ca         1 J91      -0.137000
      5 C13         -0.5910     7.8600   -18.0190 ca         1 J91       0.162000
      6 C01          2.9720     8.6160   -18.6250 ca         1 J91       0.062100
      7 C02          3.4990     8.3200   -19.9030 ca         1 J91      -0.103600
      8 C03          4.8930     8.1630   -20.0470 ca         1 J91      -0.102000
      9 C04          5.7430     8.3110   -18.9410 ca         1 J91      -0.118000
     10 C05          5.2140     8.6150   -17.6770 ca         1 J91      -0.154000
     11 C06          3.8210     8.7760   -17.5060 ca         1 J91      -0.058000
     12 C08          0.8000     7.6570   -18.1440 ca         1 J91       0.136100
     13 C09          1.3320     6.3630   -17.9400 ca         1 J91      -0.137000
     14 C20          2.7610     9.5950   -13.8940 cc         1 J91      -0.243400
     15 C21          1.3120     9.3090   -14.0690 c          1 J91       0.556200
     16 C23          1.0090     9.8930   -11.6990 cc         1 J91      -0.038600
     17 C24          2.3540    10.1570   -11.5370 cd         1 J91      -0.233000
     18 C25          3.2510    10.0060   -12.6550 cd         1 J91      -0.062000
     19 C27         -0.0670    10.0030   -10.6260 c3         1 J91       0.340200
     20 F28         -1.0250    10.8930   -10.9740 f          1 J91      -0.102667
     21 F29         -0.6810     8.8160   -10.4170 f          1 J91      -0.102667
     22 F30          0.4330    10.4050    -9.4350 f          1 J91      -0.102667
     23 N17          3.2190     9.0610   -16.2440 ns         1 J91      -0.119000
     24 N22          0.5540     9.4860   -12.9430 ns         1 J91      -0.350100
     25 O15          2.7450     7.1480   -21.7880 o          1 J91      -0.701500
     26 O16          1.8380     9.0620   -21.3970 o          1 J91      -0.701500
     27 O26          0.7740     8.9430   -15.1000 o          1 J91      -0.526000
     28 H1          -1.5630     4.6740   -17.2440 ha         1 J91       0.098000
     29 H2           0.8900     4.2980   -17.4600 ha         1 J91       0.103000
     30 H3          -2.5110     6.9550   -17.6020 ha         1 J91       0.114000
     31 H4           5.3150     7.9280   -21.0220 ha         1 J91       0.125000
     32 H5           6.8160     8.1850   -19.0630 ha         1 J91       0.094000
     33 H6           5.9020     8.7050   -16.8420 ha         1 J91       0.129000
     34 H7           2.3990     6.1770   -18.0280 ha         1 J91       0.131000
     35 H8           2.7440    10.4780   -10.5730 ha         1 J91       0.214000
     36 H10          4.3100    10.2170   -12.5130 ha         1 J91       0.222000
     37 H11          2.2130     8.9470   -16.2440 hn         1 J91       0.202000
     38 H9          -0.4320     9.2890   -13.0710 hn         1 J91       0.343500
     39 C18          3.7390     9.4550   -15.0160 c          1 J91       0.613300
     40 O19          4.9330     9.6880   -14.8550 o          1 J91      -0.624100
     41 O07          1.6110     8.7330   -18.4550 os         1 J91      -0.232200
     42 F31         -1.1230     9.0900   -18.2090 f          1 J91      -0.173000
@<TRIPOS>BOND
     1     1     7 1   
     2     1    25 1   
     3     1    26 1   
     4     2     3 ar  
     5     2     4 ar  
     6     2    28 1   
     7     3    13 ar  
     8     3    29 1   
     9     4     5 ar  
    10     4    30 1   
    11     5    12 ar  
    12     5    42 1   
    13     6     7 ar  
    14     6    11 ar  
    15     6    41 1   
    16     7     8 ar  
    17     8     9 ar  
    18     8    31 1   
    19     9    10 ar  
    20     9    32 1   
    21    10    11 ar  
    22    10    33 1   
    23    11    23 1   
    24    12    13 ar  
    25    12    41 1   
    26    13    34 1   
    27    14    15 1   
    28    14    18 2   
    29    14    39 1   
    30    15    24 1   
    31    15    27 2   
    32    16    17 2   
    33    16    19 1   
    34    16    24 1   
    35    17    18 1   
    36    17    35 1   
    37    18    36 1   
    38    19    20 1   
    39    19    21 1   
    40    19    22 1   
    41    23    37 1   
    42    23    39 1   
    43    24    38 1   
    44    39    40 2   
@<TRIPOS>SUBSTRUCTURE
     1 J91         1 TEMP              0 ****  ****    0 ROOT
