@<TRIPOS>MOLECULE
J91
   42    44     1     0     0
SMALL
abcg2


@<TRIPOS>ATOM
      1 C14          2.4590     7.8430   -20.8440 c          1 J91       0.705600
      2 C11         -0.9350     5.2770   -18.2260 ca         1 J91      -0.133000
      3 C10          0.4360     5.1000   -18.0890 ca         1 J91      -0.097000
      4 C12         -1.4580     6.5630   -18.3470 ca         1 J91      -0.137000
      5 C13         -0.5960     7.6400   -18.3310 ca         1 J91       0.162000
      6 C01          2.8960     8.5430   -18.4190 ca         1 J91       0.062100
      7 C02          3.3770     8.2000   -19.6770 ca         1 J91      -0.103600
      8 C03          4.7610     8.1890   -19.8660 ca         1 J91      -0.102000
      9 C04          5.6210     8.5410   -18.8360 ca         1 J91      -0.118000
     10 C05          5.1310     8.8790   -17.5800 ca         1 J91      -0.154000
     11 C06          3.7520     8.8650   -17.3530 ca         1 J91      -0.058000
     12 C08          0.7810     7.4810   -18.1960 ca         1 J91       0.136100
     13 C09          1.2940     6.1960   -18.0710 ca         1 J91      -0.137000
     14 C20          2.7730     9.6360   -13.7960 cc         1 J91      -0.243400
     15 C21          1.3310     9.5280   -13.9390 c          1 J91       0.556200
     16 C23          1.1680    10.0510   -11.5670 cc         1 J91      -0.038600
     17 C24          2.5160    10.1510   -11.4290 cd         1 J91      -0.233000
     18 C25          3.3100     9.9370   -12.5730 cd         1 J91      -0.062000
     19 C27          0.2060    10.2600   -10.4250 c3         1 J91       0.340200
     20 F28         -0.6420    11.2780   -10.6800 f          1 J91      -0.102667
     21 F29         -0.5500     9.1630   -10.2130 f          1 J91      -0.102667
     22 F30          0.8470    10.5410    -9.2860 f          1 J91      -0.102667
     23 N17          3.1430     9.1440   -16.1260 ns         1 J91      -0.119000
     24 N22          0.6180     9.7550   -12.7700 ns         1 J91      -0.350100
     25 O15          2.7200     6.7670   -21.4350 o          1 J91      -0.701500
     26 O16          1.5530     8.6610   -21.1270 o          1 J91      -0.701500
     27 O26          0.7070     9.2620   -14.9730 o          1 J91      -0.526000
     28 H1          -1.6010     4.4250   -18.2400 ha         1 J91       0.098000
     29 H2           0.8490     4.1040   -17.9930 ha         1 J91       0.103000
     30 H3          -2.5200     6.7380   -18.4570 ha         1 J91       0.114000
     31 H4           5.1520     7.9090   -20.8350 ha         1 J91       0.125000
     32 H5           6.6900     8.5490   -19.0050 ha         1 J91       0.094000
     33 H6           5.7980     9.1370   -16.7760 ha         1 J91       0.129000
     34 H7           2.3610     6.0580   -17.9670 ha         1 J91       0.131000
     35 H8           2.9580    10.3870   -10.4750 ha         1 J91       0.214000
     36 H10          4.3860    10.0100   -12.4940 ha         1 J91       0.222000
     37 H11          2.1220     9.1130   -16.1070 hn         1 J91       0.202000
     38 H9          -0.3890     9.6830   -12.8680 hn         1 J91       0.343500
     39 C18          3.7260     9.4250   -14.9360 c          1 J91       0.613300
     40 O19          4.9400     9.5100   -14.7550 o          1 J91      -0.624100
     41 O07          1.5350     8.6220   -18.1570 os         1 J91      -0.232200
     42 F31         -1.0930     8.8950   -18.4510 f          1 J91      -0.173000
@<TRIPOS>BOND
     1     1     7 1   
     2     1    25 1   
     3     1    26 1   
     4     2     3 ar  
     5     2     4 ar  
     6     2    28 1   
     7     3    13 ar  
     8     3    29 1   
     9     4     5 ar  
    10     4    30 1   
    11     5    12 ar  
    12     5    42 1   
    13     6     7 ar  
    14     6    11 ar  
    15     6    41 1   
    16     7     8 ar  
    17     8     9 ar  
    18     8    31 1   
    19     9    10 ar  
    20     9    32 1   
    21    10    11 ar  
    22    10    33 1   
    23    11    23 1   
    24    12    13 ar  
    25    12    41 1   
    26    13    34 1   
    27    14    15 1   
    28    14    18 2   
    29    14    39 1   
    30    15    24 1   
    31    15    27 2   
    32    16    17 2   
    33    16    19 1   
    34    16    24 1   
    35    17    18 1   
    36    17    35 1   
    37    18    36 1   
    38    19    20 1   
    39    19    21 1   
    40    19    22 1   
    41    23    37 1   
    42    23    39 1   
    43    24    38 1   
    44    39    40 2   
@<TRIPOS>SUBSTRUCTURE
     1 J91         1 TEMP              0 ****  ****    0 ROOT
