@<TRIPOS>MOLECULE
J92
   53    54     1     0     0
SMALL
No Charge or Current Charge


@<TRIPOS>ATOM
      1 O29         -7.1890     0.2110     1.0070 o          1 J92      -0.484000
      2 C28         -6.5400     1.1790     0.6330 c          1 J92       0.590100
      3 O30         -6.8420     1.9370    -0.4680 os         1 J92      -0.446100
      4 C31         -8.0140     1.5900    -1.2290 c3         1 J92       0.152900
      5 C27         -5.2590     1.6580     1.3210 c3         1 J92      -0.138400
      6 C26         -4.0220     0.8770     0.8160 c3         1 J92      -0.087400
      7 C25         -2.7080     1.3370     1.4800 c3         1 J92       0.101000
      8 N23         -1.5530     0.5710     1.0070 ns         1 J92      -0.499900
      9 C21         -0.9100     0.7740    -0.1970 c          1 J92       0.611700
     10 O22         -1.2820     1.6420    -0.9730 o          1 J92      -0.584100
     11 C11          0.2120    -0.1950    -0.5050 ca         1 J92      -0.172600
     12 C12          0.1160    -1.5310    -0.0490 ca         1 J92       0.022000
     13 C7           1.1360    -2.4720    -0.3110 ca         1 J92      -0.290500
     14 S4           0.9460    -4.1470     0.2990 sy         1 J92       1.159600
     15 O5           2.2030    -4.6690     0.8280 o          1 J92      -0.543500
     16 O6          -0.3120    -4.2960     1.0260 o          1 J92      -0.543500
     17 N1           0.7170    -5.0220    -1.0550 n8         1 J92      -1.029100
     18 C10          1.3610     0.1890    -1.2430 ca         1 J92       0.002000
     19 C9           2.3670    -0.7550    -1.5080 ca         1 J92      -0.162000
     20 C8           2.2660    -2.0760    -1.0530 ca         1 J92       0.246000
     21 Cl1          3.5840    -3.1740    -1.4710 cl         1 J92      -0.157000
     22 S14          1.6270     1.8710    -1.8070 ss         1 J92      -0.072000
     23 C15          3.1640     2.3520    -0.8990 c6         1 J92       0.038300
     24 C20          3.6500     3.7610    -1.3260 c6         1 J92      -0.069400
     25 C19          4.9470     4.1640    -0.5810 c6         1 J92      -0.072900
     26 C18          4.7560     4.0910     0.9540 c6         1 J92      -0.076400
     27 C17          4.2710     2.6870     1.3890 c6         1 J92      -0.072900
     28 C16          2.9760     2.2830     0.6410 c6         1 J92      -0.069400
     29 H1          -7.9360     0.5700    -1.6260 h1         1 J92       0.049033
     30 H2          -8.9170     1.6530    -0.6080 h1         1 J92       0.049033
     31 H3          -8.1370     2.2760    -2.0770 h1         1 J92       0.049033
     32 H4          -5.1020     2.7170     1.0850 hc         1 J92       0.075200
     33 H5          -5.3580     1.5140     2.4030 hc         1 J92       0.075200
     34 H6          -4.1650    -0.1940     1.0100 hc         1 J92       0.061700
     35 H7          -3.9400     0.9960    -0.2720 hc         1 J92       0.061700
     36 H8          -2.5410     2.4030     1.2730 h1         1 J92       0.053200
     37 H9          -2.7850     1.2140     2.5680 h1         1 J92       0.053200
     38 H10         -1.1710    -0.1440     1.6140 hn         1 J92       0.321500
     39 H11         -0.7710    -1.8500     0.4960 ha         1 J92       0.147000
     40 H12         -0.0800    -5.5860    -0.7690 hn         1 J92       0.486000
     41 H13          1.4870    -5.6810    -0.9670 hn         1 J92       0.486000
     42 H14          3.2440    -0.4620    -2.0790 ha         1 J92       0.137000
     43 H15          3.9360     1.6250    -1.1860 h1         1 J92       0.069700
     44 H16          3.8270     3.7800    -2.4100 hc         1 J92       0.053200
     45 H17          2.8630     4.5010    -1.1250 hc         1 J92       0.053200
     46 H18          5.7690     3.5000    -0.8830 hc         1 J92       0.042950
     47 H19          5.2440     5.1810    -0.8720 hc         1 J92       0.042950
     48 H20          5.7010     4.3330     1.4600 hc         1 J92       0.042700
     49 H21          4.0280     4.8500     1.2730 hc         1 J92       0.042700
     50 H22          5.0580     1.9450     1.1910 hc         1 J92       0.042950
     51 H23          4.0950     2.6720     2.4730 hc         1 J92       0.042950
     52 H24          2.1520     2.9440     0.9440 hc         1 J92       0.053200
     53 H25          2.6860     1.2680     0.9420 hc         1 J92       0.053200
@<TRIPOS>BOND
     1     1     2 2   
     2     2     3 1   
     3     2     5 1   
     4     3     4 1   
     5     4    29 1   
     6     4    30 1   
     7     4    31 1   
     8     5     6 1   
     9     5    32 1   
    10     5    33 1   
    11     6     7 1   
    12     6    34 1   
    13     6    35 1   
    14     7     8 1   
    15     7    36 1   
    16     7    37 1   
    17     8     9 1   
    18     8    38 1   
    19     9    10 2   
    20     9    11 1   
    21    11    12 ar  
    22    11    18 ar  
    23    12    13 ar  
    24    12    39 1   
    25    13    14 1   
    26    13    20 ar  
    27    14    15 2   
    28    14    16 2   
    29    14    17 1   
    30    17    40 1   
    31    17    41 1   
    32    18    19 ar  
    33    18    22 1   
    34    19    20 ar  
    35    19    42 1   
    36    20    21 1   
    37    22    23 1   
    38    23    24 1   
    39    23    28 1   
    40    23    43 1   
    41    24    25 1   
    42    24    44 1   
    43    24    45 1   
    44    25    26 1   
    45    25    46 1   
    46    25    47 1   
    47    26    27 1   
    48    26    48 1   
    49    26    49 1   
    50    27    28 1   
    51    27    50 1   
    52    27    51 1   
    53    28    52 1   
    54    28    53 1   
@<TRIPOS>SUBSTRUCTURE
     1 J92         1 TEMP              0 ****  ****    0 ROOT
