@<TRIPOS>MOLECULE
J92
   53    54     1     0     0
SMALL
abcg2


@<TRIPOS>ATOM
      1 O29         -6.9080    -0.0800     1.1210 o          1 J92      -0.484000
      2 C28         -6.8800     0.9750     0.5380 c          1 J92       0.590100
      3 O30         -7.9530     1.7290     0.3380 os         1 J92      -0.446100
      4 C31         -9.2010     1.2450     0.8340 c3         1 J92       0.152900
      5 C27         -5.6490     1.6050    -0.0570 c3         1 J92      -0.138400
      6 C26         -4.3950     0.7700     0.1400 c3         1 J92      -0.087400
      7 C25         -3.1960     1.4480    -0.5010 c3         1 J92       0.101000
      8 N23         -2.0010     0.6500    -0.3130 ns         1 J92      -0.499900
      9 C21         -0.8840     0.8530    -1.0220 c          1 J92       0.611700
     10 O22         -0.7750     1.7260    -1.8710 o          1 J92      -0.584100
     11 C11          0.2480    -0.0800    -0.7370 ca         1 J92      -0.172600
     12 C12         -0.0070    -1.4300    -0.5540 ca         1 J92       0.022000
     13 C7           1.0170    -2.3420    -0.3540 ca         1 J92      -0.290500
     14 S4           0.6010    -4.0480    -0.1010 sy         1 J92       1.159600
     15 O5           1.2700    -4.5330     1.0930 o          1 J92      -0.543500
     16 O6          -0.8490    -4.1350    -0.1760 o          1 J92      -0.543500
     17 N1           1.3210    -4.7720    -1.3850 n8         1 J92      -1.029100
     18 C10          1.5740     0.3850    -0.7290 ca         1 J92       0.002000
     19 C9           2.6010    -0.5370    -0.5300 ca         1 J92      -0.162000
     20 C8           2.3290    -1.8780    -0.3400 ca         1 J92       0.246000
     21 CL1          3.6640    -2.9380    -0.1140 cl         1 J92      -0.157000
     22 S14          1.8970     2.0920    -0.9720 ss         1 J92      -0.072000
     23 C15          3.5890     2.3470    -0.3390 c6         1 J92       0.038300
     24 C20          3.9560     3.7780    -0.7350 c6         1 J92      -0.069400
     25 C19          5.3600     4.1260    -0.2470 c6         1 J92      -0.072900
     26 C18          5.4970     3.9180     1.2570 c6         1 J92      -0.076400
     27 C17          5.1060     2.4980     1.6510 c6         1 J92      -0.072900
     28 C16          3.6980     2.1550     1.1690 c6         1 J92      -0.069400
     29 H1          -9.4750     0.2990     0.3680 h1         1 J92       0.049033
     30 H2          -9.1810     1.1190     1.9160 h1         1 J92       0.049033
     31 H3          -9.9380     1.9990     0.5730 h1         1 J92       0.049033
     32 H4          -5.8360     1.7730    -1.1220 hc         1 J92       0.075200
     33 H5          -5.5230     2.6000     0.3810 hc         1 J92       0.075200
     34 H6          -4.2090     0.6240     1.2070 hc         1 J92       0.061700
     35 H7          -4.5290    -0.2210    -0.3010 hc         1 J92       0.061700
     36 H8          -3.3660     1.5770    -1.5710 h1         1 J92       0.053200
     37 H9          -3.0560     2.4480    -0.0770 h1         1 J92       0.053200
     38 H10         -1.9710     0.0320     0.4830 hn         1 J92       0.321500
     39 H11         -1.0290    -1.7840    -0.5860 ha         1 J92       0.147000
     40 H12          0.7430    -4.7990    -2.2170 hn         1 J92       0.486000
     41 H13          1.7150    -5.6780    -1.1610 hn         1 J92       0.486000
     42 H14          3.6340    -0.2240    -0.5390 ha         1 J92       0.137000
     43 H15          4.2700     1.6690    -0.8620 h1         1 J92       0.069700
     44 H16          3.8940     3.8970    -1.8190 hc         1 J92       0.053200
     45 H17          3.2350     4.4740    -0.2930 hc         1 J92       0.053200
     46 H18          6.0910     3.5010    -0.7700 hc         1 J92       0.042950
     47 H19          5.5900     5.1600    -0.5120 hc         1 J92       0.042950
     48 H20          6.5200     4.1310     1.5760 hc         1 J92       0.042700
     49 H21          4.8520     4.6310     1.7810 hc         1 J92       0.042700
     50 H22          5.8210     1.7890     1.2190 hc         1 J92       0.042950
     51 H23          5.1610     2.3730     2.7350 hc         1 J92       0.042950
     52 H24          2.9700     2.8080     1.6600 hc         1 J92       0.053200
     53 H25          3.4430     1.1330     1.4540 hc         1 J92       0.053200
@<TRIPOS>BOND
     1     1     2 2   
     2     2     3 1   
     3     2     5 1   
     4     3     4 1   
     5     4    29 1   
     6     4    30 1   
     7     4    31 1   
     8     5     6 1   
     9     5    32 1   
    10     5    33 1   
    11     6     7 1   
    12     6    34 1   
    13     6    35 1   
    14     7     8 1   
    15     7    36 1   
    16     7    37 1   
    17     8     9 1   
    18     8    38 1   
    19     9    10 2   
    20     9    11 1   
    21    11    12 ar  
    22    11    18 ar  
    23    12    13 ar  
    24    12    39 1   
    25    13    14 1   
    26    13    20 ar  
    27    14    15 2   
    28    14    16 2   
    29    14    17 1   
    30    17    40 1   
    31    17    41 1   
    32    18    19 ar  
    33    18    22 1   
    34    19    20 ar  
    35    19    42 1   
    36    20    21 1   
    37    22    23 1   
    38    23    24 1   
    39    23    28 1   
    40    23    43 1   
    41    24    25 1   
    42    24    44 1   
    43    24    45 1   
    44    25    26 1   
    45    25    46 1   
    46    25    47 1   
    47    26    27 1   
    48    26    48 1   
    49    26    49 1   
    50    27    28 1   
    51    27    50 1   
    52    27    51 1   
    53    28    52 1   
    54    28    53 1   
@<TRIPOS>SUBSTRUCTURE
     1 J92         1 TEMP              0 ****  ****    0 ROOT
