@<TRIPOS>MOLECULE
J93
   40    42     1     0     0
SMALL
No Charge or Current Charge


@<TRIPOS>ATOM
      1 C10         32.7660    13.9080     4.5690 cg         1 J93       0.288700
      2 C13         30.5070    10.9010     0.8280 cc         1 J93      -0.241000
      3 C17         30.3460     8.4190     0.5500 cc         1 J93       0.280000
      4 C20         30.6080     5.9350     0.9430 c3         1 J93       0.225800
      5 C21         29.2880     6.8030    -1.0390 c3         1 J93       0.212100
      6 C22         29.7130     5.5180     2.1480 c3         1 J93       0.131600
      7 C01         31.0870    16.9620     3.5870 ca         1 J93      -0.113000
      8 C02         32.2300    16.1530     3.7450 ca         1 J93       0.001200
      9 C03         33.4570    16.7650     4.0850 ca         1 J93      -0.113000
     10 C04         33.5340    18.1570     4.2690 ca         1 J93      -0.065500
     11 C05         32.3870    18.9570     4.1140 ca         1 J93      -0.025000
     12 C06         31.1620    18.3540     3.7720 ca         1 J93      -0.065500
     13 C07         32.4660    20.3800     4.3020 cg         1 J93       0.326000
     14 C08         32.1290    14.6750     3.5380 ce         1 J93      -0.012900
     15 C09         31.4790    14.1060     2.4750 cf         1 J93      -0.021200
     16 C11         31.2570    12.6980     2.0930 cd         1 J93      -0.236800
     17 C12         30.5790    12.3050     0.9530 cc         1 J93      -0.013000
     18 C14         31.0960    10.2130     1.8140 cd         1 J93      -0.094000
     19 C18         31.0260     8.8010     1.6930 cd         1 J93      -0.243000
     20 N19         30.1130     7.1040     0.1570 nh         1 J93      -0.794400
     21 N24         33.3000    13.3260     5.4300 n1         1 J93      -0.463000
     22 N25         32.5280    21.5370     4.4460 n1         1 J93      -0.453000
     23 O23         28.4480     4.9740     1.7180 oh         1 J93      -0.670000
     24 S15         31.8180    11.2640     3.0330 ss         1 J93       0.248000
     25 S16         29.7910     9.8490    -0.3770 ss         1 J93       0.155000
     26 H1          30.7240     5.0610     0.2870 h1         1 J93       0.065200
     27 H2          31.6150     6.1490     1.3260 h1         1 J93       0.065200
     28 H3          29.1300     5.7230    -1.1580 h1         1 J93       0.051033
     29 H4          28.3020     7.2790    -0.9560 h1         1 J93       0.051033
     30 H5          29.7790     7.1770    -1.9480 h1         1 J93       0.051033
     31 H6          30.2580     4.7700     2.7390 h1         1 J93       0.036200
     32 H7          29.5550     6.3930     2.7920 h1         1 J93       0.036200
     33 H9          34.3580    16.1660     4.1990 ha         1 J93       0.122000
     34 H10         34.4890    18.6110     4.5300 ha         1 J93       0.126500
     35 H11         30.2670    18.9620     3.6490 ha         1 J93       0.126500
     36 H12         31.0460    14.8110     1.7630 ha         1 J93       0.179000
     37 H13         30.1430    12.9840     0.2250 ha         1 J93       0.134000
     38 H14         31.4540     8.1180     2.4170 ha         1 J93       0.141000
     39 H15         27.9140     4.8120     2.5270 ho         1 J93       0.448000
     40 H8          30.1300    16.5120     3.3310 ha         1 J93       0.122000
@<TRIPOS>BOND
     1     1    14 1   
     2     1    21 3   
     3     2    17 1   
     4     2    18 2   
     5     2    25 1   
     6     3    19 2   
     7     3    20 1   
     8     3    25 1   
     9     4     6 1   
    10     4    20 1   
    11     4    26 1   
    12     4    27 1   
    13     5    20 1   
    14     5    28 1   
    15     5    29 1   
    16     5    30 1   
    17     6    23 1   
    18     6    31 1   
    19     6    32 1   
    20     7     8 ar  
    21     7    12 ar  
    22     7    40 1   
    23     8     9 ar  
    24     8    14 1   
    25     9    10 ar  
    26     9    33 1   
    27    10    11 ar  
    28    10    34 1   
    29    11    12 ar  
    30    11    13 1   
    31    12    35 1   
    32    13    22 3   
    33    14    15 2   
    34    15    16 1   
    35    15    36 1   
    36    16    17 2   
    37    16    24 1   
    38    17    37 1   
    39    18    19 1   
    40    18    24 1   
    41    19    38 1   
    42    23    39 1   
@<TRIPOS>SUBSTRUCTURE
     1 J93         1 TEMP              0 ****  ****    0 ROOT
