@<TRIPOS>MOLECULE
J93
   40    42     1     0     0
SMALL
abcg2


@<TRIPOS>ATOM
      1 C10         33.0400    13.8410     4.2680 cg         1 J93       0.288700
      2 C13         30.4070    10.8890     0.9070 cc         1 J93      -0.241000
      3 C17         30.3590     8.4030     0.6400 cc         1 J93       0.280000
      4 C20         30.6330     6.0080     0.9310 c3         1 J93       0.225800
      5 C21         29.1390     6.9390    -0.8680 c3         1 J93       0.212100
      6 C22         29.8140     5.6330     2.1530 c3         1 J93       0.131600
      7 C01         31.3150    16.9460     3.0450 ca         1 J93      -0.113000
      8 C02         32.2420    16.0790     3.6530 ca         1 J93       0.001200
      9 C03         33.2060    16.6480     4.5050 ca         1 J93      -0.113000
     10 C04         33.2560    18.0090     4.7330 ca         1 J93      -0.065500
     11 C05         32.3310    18.8560     4.1110 ca         1 J93      -0.025000
     12 C06         31.3580    18.3080     3.2640 ca         1 J93      -0.065500
     13 C07         32.3730    20.2590     4.3430 cg         1 J93       0.326000
     14 C08         32.2150    14.6290     3.4270 ce         1 J93      -0.012900
     15 C09         31.4500    14.0290     2.4510 cf         1 J93      -0.021200
     16 C11         31.2730    12.6800     2.0990 cd         1 J93      -0.236800
     17 C12         30.4360    12.2670     1.0550 cc         1 J93      -0.013000
     18 C14         31.2160    10.1900     1.8200 cd         1 J93      -0.094000
     19 C18         31.1940     8.7970     1.6870 cd         1 J93      -0.243000
     20 N19         30.1040     7.1580     0.2000 nh         1 J93      -0.794400
     21 N24         33.7210    13.2190     4.9660 n1         1 J93      -0.463000
     22 N25         32.4060    21.3980     4.5310 n1         1 J93      -0.453000
     23 O23         28.5300     5.1860     1.7180 oh         1 J93      -0.670000
     24 S15         32.0280    11.2800     2.8850 ss         1 J93       0.248000
     25 S16         29.5860     9.7810    -0.1570 ss         1 J93       0.155000
     26 H1          30.6670     5.1670     0.2400 h1         1 J93       0.065200
     27 H2          31.6580     6.2200     1.2380 h1         1 J93       0.065200
     28 H3          29.1880     5.8990    -1.1780 h1         1 J93       0.051033
     29 H4          28.1190     7.1570    -0.5380 h1         1 J93       0.051033
     30 H5          29.3780     7.5690    -1.7280 h1         1 J93       0.051033
     31 H6          30.3430     4.8400     2.6930 h1         1 J93       0.036200
     32 H7          29.7170     6.4960     2.8180 h1         1 J93       0.036200
     33 H9          33.9330    16.0130     4.9930 ha         1 J93       0.122000
     34 H10         34.0090    18.4220     5.3900 ha         1 J93       0.126500
     35 H11         30.6340    18.9550     2.7880 ha         1 J93       0.126500
     36 H12         30.8740    14.6960     1.8210 ha         1 J93       0.179000
     37 H13         29.8820    12.9750     0.4540 ha         1 J93       0.134000
     38 H14         31.7410     8.1110     2.3120 ha         1 J93       0.141000
     39 H15         27.9660     5.0790     2.4940 ho         1 J93       0.448000
     40 H8          30.5370    16.5590     2.4040 ha         1 J93       0.122000
@<TRIPOS>BOND
     1     1    14 1   
     2     1    21 3   
     3     2    17 1   
     4     2    18 2   
     5     2    25 1   
     6     3    19 2   
     7     3    20 1   
     8     3    25 1   
     9     4     6 1   
    10     4    20 1   
    11     4    26 1   
    12     4    27 1   
    13     5    20 1   
    14     5    28 1   
    15     5    29 1   
    16     5    30 1   
    17     6    23 1   
    18     6    31 1   
    19     6    32 1   
    20     7     8 ar  
    21     7    12 ar  
    22     7    40 1   
    23     8     9 ar  
    24     8    14 1   
    25     9    10 ar  
    26     9    33 1   
    27    10    11 ar  
    28    10    34 1   
    29    11    12 ar  
    30    11    13 1   
    31    12    35 1   
    32    13    22 3   
    33    14    15 2   
    34    15    16 1   
    35    15    36 1   
    36    16    17 2   
    37    16    24 1   
    38    17    37 1   
    39    18    19 1   
    40    18    24 1   
    41    19    38 1   
    42    23    39 1   
@<TRIPOS>SUBSTRUCTURE
     1 J93         1 TEMP              0 ****  ****    0 ROOT
