@<TRIPOS>MOLECULE
J94
   48    53     1     0     0
SMALL
No Charge or Current Charge


@<TRIPOS>ATOM
      1 C01         -2.8340     3.4200     0.5580 c3         1 J94       0.075400
      2 N02         -2.8760     1.9660     0.0520 n4         1 J94      -0.501000
      3 C03         -3.1500     1.9860    -1.4660 c3         1 J94       0.075400
      4 C04         -4.0240     1.2540     0.7930 c6         1 J94       0.107600
      5 C05         -4.2300    -0.1850     0.3120 c6         1 J94      -0.053100
      6 C06         -2.9250    -0.9740     0.2920 ca         1 J94      -0.081300
      7 C07         -1.6490    -0.3260     0.3460 ca         1 J94      -0.118300
      8 C08         -0.4910    -1.1450     0.4460 ca         1 J94      -0.084000
      9 C09         -0.6270    -2.5350     0.4010 ca         1 J94       0.080100
     10 O10          0.3870    -3.4340     0.4870 os         1 J94      -0.328100
     11 C11         -0.3070    -4.7190     0.3030 c5         1 J94       0.370600
     12 O12         -1.7610    -4.4890     0.2980 os         1 J94      -0.323100
     13 C13         -1.8440    -3.1340     0.2950 ca         1 J94       0.099100
     14 C14         -3.0190    -2.3840     0.2520 ca         1 J94      -0.090000
     15 C15         -1.5230     1.2350     0.3800 c6         1 J94       0.188600
     16 C16         -0.3240     1.8100    -0.4660 c5         1 J94       0.214600
     17 O17         -0.1860     1.1500    -1.7740 os         1 J94      -0.439100
     18 C18          1.1280     0.7720    -1.9730 c          1 J94       0.688700
     19 O19          1.5470     0.1830    -2.9570 o          1 J94      -0.422000
     20 C20          1.8870     1.0890    -0.7460 ca         1 J94      -0.194600
     21 C21          3.2190     0.8530    -0.4110 ca         1 J94       0.158100
     22 O22          4.1690     0.2670    -1.1800 os         1 J94      -0.304100
     23 C23          5.3620     0.3380    -0.3190 c5         1 J94       0.368600
     24 O24          4.9920     0.8950     0.9960 os         1 J94      -0.325100
     25 C25          3.6820     1.2090     0.8290 ca         1 J94       0.068100
     26 C26          2.8460     1.8120     1.7900 ca         1 J94      -0.066000
     27 C27          1.4910     2.0540     1.4510 ca         1 J94      -0.089000
     28 C28          1.0400     1.6760     0.1670 ca         1 J94      -0.137300
     29 H1          -2.0560     3.9750     0.0310 hx         1 J94       0.097700
     30 H2          -3.8010     3.8920     0.3730 hx         1 J94       0.097700
     31 H3          -2.6260     3.4240     1.6300 hx         1 J94       0.097700
     32 H4          -2.3810     2.5750    -1.9690 hx         1 J94       0.097700
     33 H5          -3.1270     0.9630    -1.8470 hx         1 J94       0.097700
     34 H6          -4.1310     2.4280    -1.6510 hx         1 J94       0.097700
     35 H7          -3.7710     1.2750     1.8570 hx         1 J94       0.093700
     36 H8          -4.9600    -0.6760     0.9690 hc         1 J94       0.090700
     37 H9           0.5020    -0.7370     0.5760 ha         1 J94       0.149000
     38 H10         -0.0110    -5.1490    -0.6610 h2         1 J94       0.086700
     39 H11         -0.0420    -5.4050     1.1150 h2         1 J94       0.086700
     40 H12         -3.9830    -2.8850     0.2040 ha         1 J94       0.151000
     41 H13         -1.3360     1.5100     1.4220 hx         1 J94       0.097700
     42 H14         -0.5020     2.8770    -0.6460 h1         1 J94       0.074700
     43 H15          5.7810    -0.6660    -0.1890 h2         1 J94       0.090200
     44 H16          6.1050     0.9920    -0.7900 h2         1 J94       0.090200
     45 H17          3.2350     2.0840     2.7690 ha         1 J94       0.155000
     46 H18          0.8180     2.5220     2.1660 ha         1 J94       0.125000
     47 H19         -4.9310     1.8500     0.6460 hx         1 J94       0.093700
     48 H20         -4.6760    -0.1870    -0.6910 hc         1 J94       0.090700
@<TRIPOS>BOND
     1     1     2 1   
     2     1    29 1   
     3     1    30 1   
     4     1    31 1   
     5     2     3 1   
     6     2     4 1   
     7     2    15 1   
     8     3    32 1   
     9     3    33 1   
    10     3    34 1   
    11     4     5 1   
    12     4    35 1   
    13     4    47 1   
    14     5     6 1   
    15     5    36 1   
    16     5    48 1   
    17     6     7 ar  
    18     6    14 ar  
    19     7     8 ar  
    20     7    15 1   
    21     8     9 ar  
    22     8    37 1   
    23     9    10 1   
    24     9    13 ar  
    25    10    11 1   
    26    11    12 1   
    27    11    38 1   
    28    11    39 1   
    29    12    13 1   
    30    13    14 ar  
    31    14    40 1   
    32    15    16 1   
    33    15    41 1   
    34    16    17 1   
    35    16    28 1   
    36    16    42 1   
    37    17    18 1   
    38    18    19 2   
    39    18    20 1   
    40    20    21 ar  
    41    20    28 ar  
    42    21    22 1   
    43    21    25 ar  
    44    22    23 1   
    45    23    24 1   
    46    23    43 1   
    47    23    44 1   
    48    24    25 1   
    49    25    26 ar  
    50    26    27 ar  
    51    26    45 1   
    52    27    28 ar  
    53    27    46 1   
@<TRIPOS>SUBSTRUCTURE
     1 J94         1 TEMP              0 ****  ****    0 ROOT
