@<TRIPOS>MOLECULE
J94
   48    53     1     0     0
SMALL
bcc


@<TRIPOS>ATOM
      1 C01         -2.7730     3.3210     0.5980 c3         1 J94       0.103600
      2 N02         -2.8130     1.9250     0.0730 n4         1 J94      -0.613800
      3 C03         -3.0670     1.9720    -1.3990 c3         1 J94       0.103600
      4 C04         -3.9600     1.2340     0.7560 c6         1 J94       0.135800
      5 C05         -4.1790    -0.1430     0.1920 c6         1 J94      -0.053100
      6 C06         -2.9070    -0.9360     0.2140 ca         1 J94      -0.081300
      7 C07         -1.6760    -0.3120     0.3750 ca         1 J94      -0.118300
      8 C08         -0.5120    -1.0890     0.5520 ca         1 J94      -0.102000
      9 C09         -0.6310    -2.4470     0.4730 ca         1 J94       0.080100
     10 O10          0.3290    -3.3870     0.6180 os         1 J94      -0.304900
     11 C11         -0.2810    -4.6360     0.3170 c5         1 J94       0.324200
     12 O12         -1.6840    -4.4030     0.2330 os         1 J94      -0.299900
     13 C13         -1.8520    -3.0650     0.2460 ca         1 J94       0.099100
     14 C14         -3.0020    -2.3370     0.1320 ca         1 J94      -0.108000
     15 C15         -1.5250     1.1990     0.4280 c6         1 J94       0.216800
     16 C16         -0.3590     1.7420    -0.4230 c5         1 J94       0.191400
     17 O17         -0.2460     1.0480    -1.6610 os         1 J94      -0.415900
     18 C18          1.0130     0.6170    -1.8920 c          1 J94       0.764200
     19 O19          1.3110     0.0430    -2.9000 o          1 J94      -0.497500
     20 C20          1.8190     0.9850    -0.7320 ca         1 J94      -0.194600
     21 C21          3.1410     0.7840    -0.4240 ca         1 J94       0.158100
     22 O22          4.1140     0.1920    -1.1200 os         1 J94      -0.280900
     23 C23          5.3140     0.3480    -0.3550 c5         1 J94       0.322200
     24 O24          4.9340     0.9140     0.8920 os         1 J94      -0.301900
     25 C25          3.6240     1.2300     0.8000 ca         1 J94       0.068100
     26 C26          2.8310     1.8650     1.7250 ca         1 J94      -0.084000
     27 C27          1.4770     2.0740     1.4100 ca         1 J94      -0.107000
     28 C28          1.0030     1.6300     0.1990 ca         1 J94      -0.137300
     29 H1          -1.9560     3.8790     0.1500 hx         1 J94       0.097700
     30 H2          -3.7090     3.8090     0.3410 hx         1 J94       0.097700
     31 H3          -2.6560     3.2970     1.6780 hx         1 J94       0.097700
     32 H4          -2.3820     2.6690    -1.8700 hx         1 J94       0.097700
     33 H5          -2.9480     0.9860    -1.8360 hx         1 J94       0.097700
     34 H6          -4.0830     2.3240    -1.5550 hx         1 J94       0.097700
     35 H7          -3.7180     1.1900     1.8180 hx         1 J94       0.093700
     36 H8          -4.9260    -0.6300     0.8210 hc         1 J94       0.090700
     37 H9           0.4480    -0.6500     0.7800 ha         1 J94       0.167000
     38 H10          0.0900    -5.0090    -0.6420 h2         1 J94       0.086700
     39 H11         -0.0740    -5.3510     1.1130 h2         1 J94       0.086700
     40 H12         -3.9660    -2.8120     0.0040 ha         1 J94       0.169000
     41 H13         -1.3280     1.5010     1.4610 hx         1 J94       0.097700
     42 H14         -0.5350     2.7960    -0.6560 h1         1 J94       0.074700
     43 H15          5.7730    -0.6280    -0.1980 h2         1 J94       0.090200
     44 H16          5.9950     1.0200    -0.8820 h2         1 J94       0.090200
     45 H17          3.2340     2.2000     2.6710 ha         1 J94       0.173000
     46 H18          0.8390     2.5790     2.1230 ha         1 J94       0.143000
     47 H19         -4.8370     1.8670     0.6290 hx         1 J94       0.093700
     48 H20         -4.6140    -0.1010    -0.8090 hc         1 J94       0.090700
@<TRIPOS>BOND
     1     1     2 1   
     2     1    29 1   
     3     1    30 1   
     4     1    31 1   
     5     2     3 1   
     6     2     4 1   
     7     2    15 1   
     8     3    32 1   
     9     3    33 1   
    10     3    34 1   
    11     4     5 1   
    12     4    35 1   
    13     4    47 1   
    14     5     6 1   
    15     5    36 1   
    16     5    48 1   
    17     6     7 ar  
    18     6    14 ar  
    19     7     8 ar  
    20     7    15 1   
    21     8     9 ar  
    22     8    37 1   
    23     9    10 1   
    24     9    13 ar  
    25    10    11 1   
    26    11    12 1   
    27    11    38 1   
    28    11    39 1   
    29    12    13 1   
    30    13    14 ar  
    31    14    40 1   
    32    15    16 1   
    33    15    41 1   
    34    16    17 1   
    35    16    28 1   
    36    16    42 1   
    37    17    18 1   
    38    18    19 2   
    39    18    20 1   
    40    20    21 ar  
    41    20    28 ar  
    42    21    22 1   
    43    21    25 ar  
    44    22    23 1   
    45    23    24 1   
    46    23    43 1   
    47    23    44 1   
    48    24    25 1   
    49    25    26 ar  
    50    26    27 ar  
    51    26    45 1   
    52    27    28 ar  
    53    27    46 1   
@<TRIPOS>SUBSTRUCTURE
     1 J94         1 TEMP              0 ****  ****    0 ROOT
