@<TRIPOS>MOLECULE
J95
   51    52     1     0     0
SMALL
No Charge or Current Charge


@<TRIPOS>ATOM
      1 C12          0.9390     1.0680     0.3740 ca         1 J95       0.077000
      2 C17         -3.5470    -3.0120     1.1470 c6         1 J95      -0.093400
      3 C18         -4.7650    -3.5740     0.3710 c6         1 J95      -0.072400
      4 C19         -4.4050    -3.8480    -1.1100 c6         1 J95      -0.078400
      5 C20         -3.8390    -2.5790    -1.7930 c6         1 J95      -0.072400
      6 N1           0.5570     4.1310    -1.6110 n8         1 J95      -1.003100
      7 C7           0.2150     2.2720     0.2610 ca         1 J95      -0.409500
      8 C9          -1.8200     1.0690     0.7900 ca         1 J95      -0.239000
      9 C21         -2.6250    -2.0160    -1.0130 c6         1 J95      -0.093400
     10 C11          0.2870    -0.1470     0.6920 ca         1 J95      -0.282600
     11 C10         -1.1050    -0.1250     0.9000 ca         1 J95       0.456000
     12 C8          -1.1760     2.2650     0.4710 ca         1 J95       0.273000
     13 C25          3.2470    -2.5770     0.2900 c3         1 J95       0.101000
     14 C26          4.5780    -2.2620    -0.4190 c3         1 J95      -0.096400
     15 C27          5.5640    -3.4510    -0.3970 c3         1 J95      -0.072400
     16 C28          6.8970    -3.1410    -1.1050 c3         1 J95      -0.090100
     17 C16         -2.9900    -1.7350     0.4700 c6         1 J95       0.231500
     18 Cl1         -2.1830     3.7040     0.3100 cl         1 J95      -0.186000
     19 S4           1.1080     3.7750    -0.1160 sy         1 J95       1.165600
     20 O6           2.5320     3.4890    -0.2830 o          1 J95      -0.533500
     21 O5           0.6220     4.8760     0.7100 o          1 J95      -0.533500
     22 N14         -1.8010    -1.2870     1.2050 nu         1 J95      -0.941200
     23 C22          1.0760    -1.4300     0.8090 c          1 J95       0.625700
     24 O23          0.6500    -2.4220     1.3860 o          1 J95      -0.638100
     25 N24          2.3350    -1.4330     0.2540 ns         1 J95      -0.492900
     26 H1           2.0180     1.0880     0.2350 ha         1 J95       0.143000
     27 H3          -2.7630    -3.7810     1.2030 hc         1 J95       0.051200
     28 H4          -5.1150    -4.5000     0.8470 hc         1 J95       0.044950
     29 H5          -5.5990    -2.8610     0.4240 hc         1 J95       0.044950
     30 H6          -3.6670    -4.6600    -1.1680 hc         1 J95       0.044200
     31 H7          -5.2950    -4.1980    -1.6520 hc         1 J95       0.044200
     32 H8          -3.5440    -2.8110    -2.8260 hc         1 J95       0.044950
     33 H9          -4.6250    -1.8120    -1.8580 hc         1 J95       0.044950
     34 H10         -0.3970     3.7840    -1.5730 hn         1 J95       0.477000
     35 H11          0.4480     5.1400    -1.5390 hn         1 J95       0.477000
     36 H12         -2.8910     1.0770     0.9560 ha         1 J95       0.136000
     37 H13         -1.7920    -2.7310    -1.0650 hc         1 J95       0.051200
     38 H14         -2.2770    -1.0940    -1.4980 hc         1 J95       0.051200
     39 H15          2.7620    -3.4320    -0.2000 h1         1 J95       0.052700
     40 H16          3.4410    -2.8430     1.3370 h1         1 J95       0.052700
     41 H17          4.3740    -1.9810    -1.4590 hc         1 J95       0.046200
     42 H18          5.0470    -1.3960     0.0650 hc         1 J95       0.046200
     43 H19          5.7700    -3.7350     0.6420 hc         1 J95       0.041200
     44 H20          5.0980    -4.3190    -0.8800 hc         1 J95       0.041200
     45 H21          6.7280    -2.8880    -2.1580 hc         1 J95       0.034700
     46 H22          7.4060    -2.2980    -0.6220 hc         1 J95       0.034700
     47 H23          7.5630    -4.0120    -1.0640 hc         1 J95       0.034700
     48 H24         -3.7740    -0.9630     0.5000 h1         1 J95       0.061700
     49 H25         -1.1330    -2.0330     1.4400 hn         1 J95       0.531000
     50 H26          2.6250    -0.6030    -0.2440 hn         1 J95       0.317500
     51 H2          -3.8410    -2.7880     2.1810 hc         1 J95       0.051200
@<TRIPOS>BOND
     1     1     7 ar  
     2     1    10 ar  
     3     1    26 1   
     4     2     3 1   
     5     2    17 1   
     6     2    27 1   
     7     2    51 1   
     8     3     4 1   
     9     3    28 1   
    10     3    29 1   
    11     4     5 1   
    12     4    30 1   
    13     4    31 1   
    14     5     9 1   
    15     5    32 1   
    16     5    33 1   
    17     6    19 1   
    18     6    34 1   
    19     6    35 1   
    20     7    12 ar  
    21     7    19 1   
    22     8    11 ar  
    23     8    12 ar  
    24     8    36 1   
    25     9    17 1   
    26     9    37 1   
    27     9    38 1   
    28    10    11 ar  
    29    10    23 1   
    30    11    22 1   
    31    12    18 1   
    32    13    14 1   
    33    13    25 1   
    34    13    39 1   
    35    13    40 1   
    36    14    15 1   
    37    14    41 1   
    38    14    42 1   
    39    15    16 1   
    40    15    43 1   
    41    15    44 1   
    42    16    45 1   
    43    16    46 1   
    44    16    47 1   
    45    17    22 1   
    46    17    48 1   
    47    19    20 2   
    48    19    21 2   
    49    22    49 1   
    50    23    24 2   
    51    23    25 1   
    52    25    50 1   
@<TRIPOS>SUBSTRUCTURE
     1 J95         1 TEMP              0 ****  ****    0 ROOT
