@<TRIPOS>MOLECULE
J95
   51    52     1     0     0
SMALL
bcc


@<TRIPOS>ATOM
      1 C12          1.0290     0.9200     0.3800 ca         1 J95       0.059000
      2 C17         -3.4130    -3.1600     0.9810 c6         1 J95      -0.093400
      3 C18         -4.8920    -3.4630     0.7620 c6         1 J95      -0.072400
      4 C19         -5.2380    -3.5320    -0.7220 c6         1 J95      -0.078400
      5 C20         -4.8250    -2.2520    -1.4410 c6         1 J95      -0.072400
      6 N1           1.0130     4.3010    -1.3090 n8         1 J95      -0.892700
      7 C7           0.2950     2.0800     0.1810 ca         1 J95      -0.409500
      8 C9          -1.7060     0.7310     0.0900 ca         1 J95      -0.257000
      9 C21         -3.3450    -1.9530    -1.2220 c6         1 J95      -0.093400
     10 C11          0.4440    -0.3340     0.4400 ca         1 J95      -0.282600
     11 C10         -0.9740    -0.4490     0.3520 ca         1 J95       0.317600
     12 C8          -1.0870     1.9520     0.0190 ca         1 J95       0.181400
     13 C25          3.4820    -2.5640     0.1910 c3         1 J95       0.101000
     14 C26          4.8480    -2.1160    -0.3030 c3         1 J95      -0.096400
     15 C27          5.8810    -3.2330    -0.2280 c3         1 J95      -0.072400
     16 C28          7.2510    -2.7920    -0.7240 c3         1 J95      -0.090100
     17 C16         -3.0110    -1.8730     0.2690 c6         1 J95       0.231500
     18 CL1         -2.0740     3.3320    -0.3080 cl         1 J95      -0.094400
     19 S4           1.1290     3.6370     0.1890 sy         1 J95       1.307200
     20 O6           2.5400     3.3560     0.4000 o          1 J95      -0.604300
     21 O5           0.4340     4.5350     1.0920 o          1 J95      -0.604300
     22 N14         -1.5990    -1.6250     0.4930 nu         1 J95      -0.747600
     23 C22          1.2980    -1.5410     0.6200 c          1 J95       0.692700
     24 O23          0.8970    -2.5380     1.2190 o          1 J95      -0.638100
     25 N24          2.5260    -1.4800     0.0870 ns         1 J95      -0.559900
     26 H1           2.0990     1.0090     0.5110 ha         1 J95       0.161000
     27 H3          -2.8080    -3.9890     0.5930 hc         1 J95       0.051200
     28 H4          -5.1530    -4.4000     1.2580 hc         1 J95       0.044950
     29 H5          -5.4930    -2.6820     1.2380 hc         1 J95       0.044950
     30 H6          -4.7190    -4.3830    -1.1750 hc         1 J95       0.044200
     31 H7          -6.3070    -3.7120    -0.8520 hc         1 J95       0.044200
     32 H8          -5.0320    -2.3300    -2.5100 hc         1 J95       0.044950
     33 H9          -5.4240    -1.4140    -1.0680 hc         1 J95       0.044950
     34 H10          1.4530     3.7510    -2.0380 hn         1 J95       0.421800
     35 H11          0.0780     4.5880    -1.5700 hn         1 J95       0.421800
     36 H12         -2.7770     0.6870    -0.0440 ha         1 J95       0.154000
     37 H13         -2.7360    -2.7480    -1.6680 hc         1 J95       0.051200
     38 H14         -3.0640    -1.0230    -1.7240 hc         1 J95       0.051200
     39 H15          3.1410    -3.4300    -0.3870 h1         1 J95       0.052700
     40 H16          3.5490    -2.8840     1.2330 h1         1 J95       0.052700
     41 H17          4.7660    -1.7690    -1.3390 hc         1 J95       0.046200
     42 H18          5.1860    -1.2600     0.2890 hc         1 J95       0.046200
     43 H19          5.9620    -3.5830     0.8060 hc         1 J95       0.041200
     44 H20          5.5360    -4.0900    -0.8130 hc         1 J95       0.041200
     45 H21          7.2100    -2.4710    -1.7660 hc         1 J95       0.034700
     46 H22          7.6310    -1.9550    -0.1360 hc         1 J95       0.034700
     47 H23          7.9780    -3.6010    -0.6550 hc         1 J95       0.034700
     48 H24         -3.5900    -1.0580     0.7190 h1         1 J95       0.061700
     49 H25         -1.0160    -2.4190     0.7190 hn         1 J95       0.475800
     50 H26          2.7410    -0.7380    -0.5600 hn         1 J95       0.317500
     51 H2          -3.1940    -3.0750     2.0480 hc         1 J95       0.051200
@<TRIPOS>BOND
     1     1     7 ar  
     2     1    10 ar  
     3     1    26 1   
     4     2     3 1   
     5     2    17 1   
     6     2    27 1   
     7     2    51 1   
     8     3     4 1   
     9     3    28 1   
    10     3    29 1   
    11     4     5 1   
    12     4    30 1   
    13     4    31 1   
    14     5     9 1   
    15     5    32 1   
    16     5    33 1   
    17     6    19 1   
    18     6    34 1   
    19     6    35 1   
    20     7    12 ar  
    21     7    19 1   
    22     8    11 ar  
    23     8    12 ar  
    24     8    36 1   
    25     9    17 1   
    26     9    37 1   
    27     9    38 1   
    28    10    11 ar  
    29    10    23 1   
    30    11    22 1   
    31    12    18 1   
    32    13    14 1   
    33    13    25 1   
    34    13    39 1   
    35    13    40 1   
    36    14    15 1   
    37    14    41 1   
    38    14    42 1   
    39    15    16 1   
    40    15    43 1   
    41    15    44 1   
    42    16    45 1   
    43    16    46 1   
    44    16    47 1   
    45    17    22 1   
    46    17    48 1   
    47    19    20 2   
    48    19    21 2   
    49    22    49 1   
    50    23    24 2   
    51    23    25 1   
    52    25    50 1   
@<TRIPOS>SUBSTRUCTURE
     1 J95         1 TEMP              0 ****  ****    0 ROOT
