@<TRIPOS>MOLECULE
J96
  187   189     1     0     0
SMALL
No Charge or Current Charge


@<TRIPOS>ATOM
      1 O23        -27.3660     7.7020    -5.2370 o          1 J96      -0.648100
      2 C12        -28.0220     7.3530    -6.2070 c          1 J96       0.607100
      3 N2         -28.2830     8.2770    -7.1940 ns         1 J96      -0.485900
      4 C11        -28.7060     7.9770    -8.5650 c3         1 J96       0.096000
      5 C10        -30.2310     8.0890    -8.7650 c3         1 J96      -0.082400
      6 C9         -30.7710     7.2910    -9.9770 c3         1 J96      -0.071400
      7 C8         -30.1880     7.6840   -11.3630 c3         1 J96      -0.086400
      8 C1         -29.3560     6.5640   -12.0660 c3         1 J96       0.011700
      9 N          -28.0910     6.2440   -11.3540 ns         1 J96      -0.516900
     10 C2         -26.9980     7.0670   -11.2790 c          1 J96       0.643100
     11 O6         -26.9450     8.1740   -11.7880 o          1 J96      -0.658100
     12 N1         -25.9680     6.5140   -10.5620 ns         1 J96      -0.503900
     13 C3         -24.6900     7.2050   -10.2620 c3         1 J96      -0.017300
     14 C7         -23.4750     6.2170   -10.3380 c          1 J96       0.727000
     15 O5         -23.3460     5.3590    -9.4760 o          1 J96      -0.769500
     16 O4         -22.7170     6.3080   -11.2960 o          1 J96      -0.769500
     17 C4         -24.7800     7.9840    -8.9220 c3         1 J96      -0.060400
     18 C5         -23.5610     8.9030    -8.6540 c3         1 J96      -0.187400
     19 C6         -23.8010     9.7760    -7.4090 c          1 J96       0.722000
     20 O3         -24.3640    10.8510    -7.5560 o          1 J96      -0.779000
     21 O2         -23.4350     9.3540    -6.3240 o          1 J96      -0.779000
     22 C          -29.1010     6.8150   -13.6060 c          1 J96       0.739000
     23 O1         -29.4250     7.8840   -14.1120 o          1 J96      -0.740000
     24 O          -28.6550     5.8860   -14.2710 o          1 J96      -0.740000
     25 C13        -28.6060     5.9220    -6.3410 c3         1 J96      -0.102100
     26 C14        -27.7360     4.9780    -7.1900 ca         1 J96      -0.106300
     27 C19        -26.4230     4.6180    -6.8040 ca         1 J96       0.171100
     28 C18        -25.6630     3.7550    -7.6260 ca         1 J96      -0.190000
     29 C17        -26.2040     3.2450    -8.8170 ca         1 J96      -0.082000
     30 C16        -27.5130     3.5780    -9.1870 ca         1 J96      -0.165000
     31 C15        -28.2760     4.4300    -8.3750 ca         1 J96      -0.084000
     32 O7         -25.9230     5.1070    -5.6130 os         1 J96      -0.335100
     33 C20        -24.6240     4.7480    -5.1110 c3         1 J96       0.121600
     34 C21        -24.4290     5.4620    -3.7570 c3         1 J96       0.102000
     35 N3         -23.2270     5.0160    -3.0360 ns         1 J96      -0.515900
     36 C22        -21.9320     5.2620    -3.4370 c          1 J96       0.597100
     37 O22        -21.6680     5.9160    -4.4330 o          1 J96      -0.520100
     38 C23        -20.8490     4.6870    -2.5250 c3         1 J96      -0.149400
     39 C24        -20.1440     3.5080    -3.2180 c3         1 J96       0.148600
     40 O8         -19.1120     3.0410    -2.3300 os         1 J96      -0.497000
     41 C25        -18.3240     1.9520    -2.8540 c3         1 J96       0.163600
     42 C26        -17.2340     1.5910    -1.8200 c3         1 J96       0.154600
     43 O9         -16.3960     0.5710    -2.3940 os         1 J96      -0.453000
     44 C27        -15.2960     0.1600    -1.5620 c3         1 J96       0.166600
     45 C28        -14.4710    -0.8830    -2.3460 c3         1 J96       0.152600
     46 O10        -13.3120    -1.2380    -1.5650 os         1 J96      -0.470000
     47 C29        -12.4240    -2.1670    -2.2190 c3         1 J96       0.162600
     48 C30        -11.2120    -2.4260    -1.2970 c3         1 J96       0.159600
     49 O11        -10.2810    -3.2610    -2.0120 os         1 J96      -0.466000
     50 C31         -9.0750    -3.5750    -1.2910 c3         1 J96       0.165600
     51 C32         -8.1730    -4.4170    -2.2180 c3         1 J96       0.155600
     52 O12         -6.9410    -4.7060    -1.5280 os         1 J96      -0.465000
     53 C33         -5.9850    -5.4450    -2.3140 c3         1 J96       0.160600
     54 C34         -4.7190    -5.6800    -1.4620 c3         1 J96       0.161600
     55 O13         -3.7420    -6.3400    -2.2900 os         1 J96      -0.468000
     56 C35         -2.4970    -6.6410    -1.6310 c3         1 J96       0.164600
     57 C36         -1.5570    -7.2950    -2.6660 c3         1 J96       0.157600
     58 O14         -0.3130    -7.6250    -2.0170 os         1 J96      -0.464000
     59 C37          0.6680    -8.2150    -2.8920 c3         1 J96       0.159600
     60 C38          1.9310    -8.5450    -2.0680 c3         1 J96       0.161600
     61 O15          2.9140    -9.0990    -2.9630 os         1 J96      -0.467000
     62 C39          4.1480    -9.4960    -2.3340 c3         1 J96       0.163600
     63 C40          5.0870   -10.0440    -3.4300 c3         1 J96       0.158600
     64 O16          6.2980   -10.5140    -2.8060 os         1 J96      -0.465000
     65 C41          7.2680   -11.0470    -3.7290 c3         1 J96       0.159600
     66 C42          8.4840   -11.5570    -2.9270 c3         1 J96       0.162600
     67 O17          9.4420   -12.0930    -3.8610 os         1 J96      -0.468000
     68 C43         10.6210   -12.6580    -3.2560 c3         1 J96       0.163600
     69 C44         11.5340   -13.1830    -4.3850 c3         1 J96       0.158600
     70 O18         12.6720   -13.8350    -3.7890 os         1 J96      -0.464000
     71 C45         13.6080   -14.3770    -4.7410 c3         1 J96       0.159600
     72 C46         14.7400   -15.0870    -3.9670 c3         1 J96       0.161600
     73 O19         15.6650   -15.6340    -4.9270 os         1 J96      -0.465000
     74 C47         16.7600   -16.3680    -4.3520 c3         1 J96       0.142600
     75 C48         17.6530   -16.8700    -5.5070 c3         1 J96       0.101000
     76 N4          18.8210   -17.6330    -5.0420 ns         1 J96      -0.511900
     77 C49         18.7710   -18.9150    -4.5440 c          1 J96       0.599100
     78 O21         17.7290   -19.5520    -4.4820 o          1 J96      -0.596100
     79 C50         20.1210   -19.4990    -4.1160 c3         1 J96      -0.158400
     80 C51         20.2370   -19.5920    -2.5760 c3         1 J96      -0.065400
     81 C52         21.5960   -20.1580    -2.1080 c3         1 J96      -0.081400
     82 C53         21.7080   -20.2700    -0.5680 c3         1 J96      -0.060400
     83 C54         23.1020   -20.7450    -0.0460 c5         1 J96       0.088300
     84 C57         23.2990   -20.9160     1.5140 c5         1 J96       0.088700
     85 C56         22.9100   -22.3930     1.9210 c5         1 J96       0.086700
     86 C55         22.5000   -23.1750     0.6360 c5         1 J96       0.027600
     87 S           23.5090   -22.4250    -0.7170 ss         1 J96      -0.429000
     88 N6          22.2760   -20.1260     2.2060 ns         1 J96      -0.497900
     89 C58         21.3530   -20.8940     2.8340 c          1 J96       0.580000
     90 O20         20.3900   -20.4750     3.4460 o          1 J96      -0.561000
     91 N5          21.6770   -22.2010     2.6840 ns         1 J96      -0.495900
     92 H22        -27.9190     9.2030    -7.0040 hn         1 J96       0.391500
     93 H20        -28.2000     8.6690    -9.2510 h1         1 J96       0.071700
     94 H21        -28.3730     6.9690    -8.8240 h1         1 J96       0.071700
     95 H18        -30.7440     7.7250    -7.8680 hc         1 J96       0.017200
     96 H19        -30.5030     9.1470    -8.8680 hc         1 J96       0.017200
     97 H16        -30.6190     6.2200    -9.7990 hc         1 J96       0.008200
     98 H17        -31.8590     7.4310   -10.0090 hc         1 J96       0.008200
     99 H14        -31.0390     7.9290   -12.0120 hc         1 J96       0.057200
    100 H15        -29.5990     8.6050   -11.2880 hc         1 J96       0.057200
    101 H          -29.9640     5.6510   -12.0190 h1         1 J96      -0.006300
    102 H6         -28.0160     5.3440   -10.9000 hn         1 J96       0.275500
    103 H7         -26.1140     5.5890   -10.1760 hn         1 J96       0.297500
    104 H1         -24.5230     7.9440   -11.0560 h1         1 J96       0.058700
    105 H8         -25.6830     8.6060    -8.9420 hc         1 J96       0.024700
    106 H9         -24.9030     7.2800    -8.0900 hc         1 J96       0.024700
    107 H10        -22.7030     8.2380    -8.4950 hc         1 J96       0.032200
    108 H11        -23.4690     9.5390    -9.5430 hc         1 J96       0.032200
    109 H23        -28.7290     5.4940    -5.3400 hc         1 J96       0.044200
    110 H24        -29.5870     5.9920    -6.8210 hc         1 J96       0.044200
    111 H28        -24.6490     3.4720    -7.3620 ha         1 J96       0.134000
    112 H27        -25.6120     2.5840    -9.4460 ha         1 J96       0.100000
    113 H26        -27.9410     3.1680   -10.0990 ha         1 J96       0.096000
    114 H25        -29.2940     4.6670    -8.6730 ha         1 J96       0.098000
    115 H29        -24.5570     3.6630    -4.9590 h1         1 J96       0.064200
    116 H30        -23.8350     5.0570    -5.8080 h1         1 J96       0.064200
    117 H31        -24.3670     6.5460    -3.9240 h1         1 J96       0.069700
    118 H32        -25.3040     5.2690    -3.1220 h1         1 J96       0.069700
    119 H33        -23.3470     4.4800    -2.1840 hn         1 J96       0.283500
    120 H34        -20.1040     5.4660    -2.3230 hc         1 J96       0.037200
    121 H35        -21.2870     4.3320    -1.5840 hc         1 J96       0.037200
    122 H36        -20.8730     2.7130    -3.4310 h1         1 J96       0.084700
    123 H37        -19.7170     3.8460    -4.1740 h1         1 J96       0.084700
    124 H38        -18.9510     1.0700    -3.0420 h1         1 J96       0.049700
    125 H39        -17.8400     2.2420    -3.7960 h1         1 J96       0.049700
    126 H40        -16.6450     2.4870    -1.5860 h1         1 J96       0.023200
    127 H41        -17.7070     1.2310    -0.8970 h1         1 J96       0.023200
    128 H42        -14.6570     1.0180    -1.3170 h1         1 J96       0.024200
    129 H43        -15.6600    -0.2850    -0.6270 h1         1 J96       0.024200
    130 H44        -15.0930    -1.7670    -2.5420 h1         1 J96       0.041700
    131 H45        -14.1690    -0.4500    -3.3090 h1         1 J96       0.041700
    132 H46        -12.9360    -3.1160    -2.4220 h1         1 J96       0.035200
    133 H47        -12.0690    -1.7520    -3.1710 h1         1 J96       0.035200
    134 H48        -10.7460    -1.4670    -1.0330 h1         1 J96       0.033700
    135 H49        -11.5500    -2.9170    -0.3760 h1         1 J96       0.033700
    136 H50         -8.5450    -2.6580    -1.0040 h1         1 J96       0.032200
    137 H51         -9.3040    -4.1470    -0.3820 h1         1 J96       0.032200
    138 H52         -8.6930    -5.3460    -2.4860 h1         1 J96       0.038200
    139 H53         -7.9760    -3.8510    -3.1380 h1         1 J96       0.038200
    140 H54         -6.4010    -6.4130    -2.6210 h1         1 J96       0.035200
    141 H55         -5.7130    -4.8820    -3.2170 h1         1 J96       0.035200
    142 H56         -4.3350    -4.7150    -1.1060 h1         1 J96       0.035200
    143 H57         -4.9750    -6.2980    -0.5920 h1         1 J96       0.035200
    144 H58         -2.0310    -5.7250    -1.2450 h1         1 J96       0.034200
    145 H59         -2.6580    -7.3320    -0.7940 h1         1 J96       0.034200
    146 H60         -2.0340    -8.1980    -3.0690 h1         1 J96       0.037200
    147 H61         -1.3870    -6.5930    -3.4940 h1         1 J96       0.037200
    148 H62          0.2800    -9.1380    -3.3430 h1         1 J96       0.035700
    149 H63          0.9340    -7.5190    -3.6980 h1         1 J96       0.035700
    150 H64          2.3100    -7.6290    -1.5950 h1         1 J96       0.036200
    151 H65          1.6730    -9.2650    -1.2800 h1         1 J96       0.036200
    152 H66          4.6260    -8.6400    -1.8390 h1         1 J96       0.035200
    153 H67          3.9660   -10.2780    -1.5850 h1         1 J96       0.035200
    154 H68          4.5840   -10.8640    -3.9590 h1         1 J96       0.036700
    155 H69          5.3060    -9.2470    -4.1510 h1         1 J96       0.036700
    156 H70          6.8390   -11.8800    -4.3020 h1         1 J96       0.035700
    157 H71          7.5960   -10.2730    -4.4350 h1         1 J96       0.035700
    158 H72          8.9210   -10.7260    -2.3570 h1         1 J96       0.036200
    159 H73          8.1550   -12.3310    -2.2220 h1         1 J96       0.036200
    160 H74         11.1610   -11.9010    -2.6720 h1         1 J96       0.035200
    161 H75         10.3520   -13.4880    -2.5890 h1         1 J96       0.035200
    162 H76         10.9680   -13.8890    -5.0070 h1         1 J96       0.036200
    163 H77         11.8530   -12.3420    -5.0140 h1         1 J96       0.036200
    164 H78         13.1130   -15.1010    -5.4010 h1         1 J96       0.035700
    165 H79         14.0360   -13.5770    -5.3600 h1         1 J96       0.035700
    166 H80         15.2430   -14.3650    -3.3110 h1         1 J96       0.035700
    167 H81         14.3090   -15.8840    -3.3460 h1         1 J96       0.035700
    168 H82         17.3510   -15.7250    -3.6870 h1         1 J96       0.030200
    169 H83         16.3900   -17.2220    -3.7710 h1         1 J96       0.030200
    170 H84         17.0570   -17.5050    -6.1750 h1         1 J96       0.066200
    171 H85         18.0070   -16.0080    -6.0870 h1         1 J96       0.066200
    172 H86         19.7310   -17.1880    -5.0680 hn         1 J96       0.310500
    173 H87         20.2150   -20.5080    -4.5330 hc         1 J96       0.055700
    174 H88         20.9370   -18.8680    -4.4880 hc         1 J96       0.055700
    175 H89         20.0920   -18.5940    -2.1420 hc         1 J96       0.055200
    176 H90         19.4290   -20.2280    -2.1900 hc         1 J96       0.055200
    177 H91         21.7400   -21.1460    -2.5610 hc         1 J96       0.044200
    178 H92         22.4020   -19.5140    -2.4810 hc         1 J96       0.044200
    179 H93         21.4900   -19.2790    -0.1530 hc         1 J96       0.053700
    180 H94         20.9140   -20.9330    -0.2050 hc         1 J96       0.053700
    181 H2          23.8440   -20.0290    -0.4260 h1         1 J96       0.078700
    182 H4          24.3210   -20.6680     1.8300 h1         1 J96       0.062700
    183 H3          23.7090   -22.8910     2.4890 h1         1 J96       0.087700
    184 H96         22.7050   -24.2500     0.7270 h1         1 J96       0.082200
    185 H95         21.4340   -23.0560     0.3980 h1         1 J96       0.082200
    186 H98         22.1940   -19.1170     2.2330 hn         1 J96       0.328500
    187 H97         21.1040   -22.9150     3.1190 hn         1 J96       0.329500
@<TRIPOS>BOND
     1     1     2 2   
     2     2     3 1   
     3     2    25 1   
     4     3     4 1   
     5     3    92 1   
     6     4     5 1   
     7     4    93 1   
     8     4    94 1   
     9     5     6 1   
    10     5    95 1   
    11     5    96 1   
    12     6     7 1   
    13     6    97 1   
    14     6    98 1   
    15     7     8 1   
    16     7    99 1   
    17     7   100 1   
    18     8     9 1   
    19     8    22 1   
    20     8   101 1   
    21     9    10 1   
    22     9   102 1   
    23    10    11 2   
    24    10    12 1   
    25    12    13 1   
    26    12   103 1   
    27    13    14 1   
    28    13    17 1   
    29    13   104 1   
    30    14    15 1   
    31    14    16 1   
    32    17    18 1   
    33    17   105 1   
    34    17   106 1   
    35    18    19 1   
    36    18   107 1   
    37    18   108 1   
    38    19    20 1   
    39    19    21 1   
    40    22    23 1   
    41    22    24 1   
    42    25    26 1   
    43    25   109 1   
    44    25   110 1   
    45    26    27 ar  
    46    26    31 ar  
    47    27    28 ar  
    48    27    32 1   
    49    28    29 ar  
    50    28   111 1   
    51    29    30 ar  
    52    29   112 1   
    53    30    31 ar  
    54    30   113 1   
    55    31   114 1   
    56    32    33 1   
    57    33    34 1   
    58    33   115 1   
    59    33   116 1   
    60    34    35 1   
    61    34   117 1   
    62    34   118 1   
    63    35    36 1   
    64    35   119 1   
    65    36    37 2   
    66    36    38 1   
    67    38    39 1   
    68    38   120 1   
    69    38   121 1   
    70    39    40 1   
    71    39   122 1   
    72    39   123 1   
    73    40    41 1   
    74    41    42 1   
    75    41   124 1   
    76    41   125 1   
    77    42    43 1   
    78    42   126 1   
    79    42   127 1   
    80    43    44 1   
    81    44    45 1   
    82    44   128 1   
    83    44   129 1   
    84    45    46 1   
    85    45   130 1   
    86    45   131 1   
    87    46    47 1   
    88    47    48 1   
    89    47   132 1   
    90    47   133 1   
    91    48    49 1   
    92    48   134 1   
    93    48   135 1   
    94    49    50 1   
    95    50    51 1   
    96    50   136 1   
    97    50   137 1   
    98    51    52 1   
    99    51   138 1   
   100    51   139 1   
   101    52    53 1   
   102    53    54 1   
   103    53   140 1   
   104    53   141 1   
   105    54    55 1   
   106    54   142 1   
   107    54   143 1   
   108    55    56 1   
   109    56    57 1   
   110    56   144 1   
   111    56   145 1   
   112    57    58 1   
   113    57   146 1   
   114    57   147 1   
   115    58    59 1   
   116    59    60 1   
   117    59   148 1   
   118    59   149 1   
   119    60    61 1   
   120    60   150 1   
   121    60   151 1   
   122    61    62 1   
   123    62    63 1   
   124    62   152 1   
   125    62   153 1   
   126    63    64 1   
   127    63   154 1   
   128    63   155 1   
   129    64    65 1   
   130    65    66 1   
   131    65   156 1   
   132    65   157 1   
   133    66    67 1   
   134    66   158 1   
   135    66   159 1   
   136    67    68 1   
   137    68    69 1   
   138    68   160 1   
   139    68   161 1   
   140    69    70 1   
   141    69   162 1   
   142    69   163 1   
   143    70    71 1   
   144    71    72 1   
   145    71   164 1   
   146    71   165 1   
   147    72    73 1   
   148    72   166 1   
   149    72   167 1   
   150    73    74 1   
   151    74    75 1   
   152    74   168 1   
   153    74   169 1   
   154    75    76 1   
   155    75   170 1   
   156    75   171 1   
   157    76    77 1   
   158    76   172 1   
   159    77    78 2   
   160    77    79 1   
   161    79    80 1   
   162    79   173 1   
   163    79   174 1   
   164    80    81 1   
   165    80   175 1   
   166    80   176 1   
   167    81    82 1   
   168    81   177 1   
   169    81   178 1   
   170    82    83 1   
   171    82   179 1   
   172    82   180 1   
   173    83    84 1   
   174    83    87 1   
   175    83   181 1   
   176    84    85 1   
   177    84    88 1   
   178    84   182 1   
   179    85    86 1   
   180    85    91 1   
   181    85   183 1   
   182    86    87 1   
   183    86   184 1   
   184    86   185 1   
   185    88    89 1   
   186    88   186 1   
   187    89    90 2   
   188    89    91 1   
   189    91   187 1   
@<TRIPOS>SUBSTRUCTURE
     1 J96         1 TEMP              0 ****  ****    0 ROOT
