@<TRIPOS>MOLECULE
J96
  187   189     1     0     0
SMALL
bcc


@<TRIPOS>ATOM
      1 O23        -25.8520     9.4900    -6.5360 o          1 J96      -0.648100
      2 C12        -26.4030     8.5840    -7.1530 c          1 J96       0.674100
      3 N2         -25.8130     8.0210    -8.2250 ns         1 J96      -0.552900
      4 C11        -26.2680     6.9350    -9.0770 c3         1 J96       0.096000
      5 C10        -27.4570     7.2450    -9.9780 c3         1 J96      -0.082400
      6 C9         -28.0140     5.9900   -10.6540 c3         1 J96      -0.071400
      7 C8         -27.0990     5.2850   -11.6770 c3         1 J96      -0.086400
      8 C1         -26.8270     3.8150   -11.3430 c3         1 J96       0.011700
      9 N          -26.0730     3.6510   -10.1200 ns         1 J96      -0.583900
     10 C2         -24.7460     3.9280   -10.0490 c          1 J96       0.777100
     11 O6         -24.0990     4.2910   -11.0320 o          1 J96      -0.658100
     12 N1         -24.1790     3.7680    -8.8240 ns         1 J96      -0.570900
     13 C3         -22.8760     4.3140    -8.4930 c3         1 J96      -0.017300
     14 C7         -22.4250     3.7290    -7.1380 c          1 J96       0.937600
     15 O5         -23.3290     3.4450    -6.3230 o          1 J96      -0.874800
     16 O4         -21.1970     3.6760    -6.9380 o          1 J96      -0.874800
     17 C4         -22.9050     5.8510    -8.4350 c3         1 J96      -0.060400
     18 C5         -21.5580     6.5470    -8.3990 c3         1 J96      -0.187400
     19 C6         -21.6150     8.0850    -8.4960 c          1 J96       0.932600
     20 O3         -22.7300     8.6360    -8.6510 o          1 J96      -0.884300
     21 O2         -20.5190     8.6750    -8.4350 o          1 J96      -0.884300
     22 C          -26.2350     2.9600   -12.5050 c          1 J96       0.949600
     23 O1         -26.3140     3.4360   -13.6550 o          1 J96      -0.845300
     24 O          -25.8170     1.8310   -12.1920 o          1 J96      -0.845300
     25 C13        -27.8030     8.1420    -6.7340 c3         1 J96      -0.102100
     26 C14        -28.0670     6.6630    -6.6660 ca         1 J96      -0.106300
     27 C19        -27.2270     5.8300    -5.9120 ca         1 J96       0.171100
     28 C18        -27.4200     4.4530    -5.9080 ca         1 J96      -0.208000
     29 C17        -28.4850     3.9030    -6.6160 ca         1 J96      -0.100000
     30 C16        -29.3530     4.7170    -7.3220 ca         1 J96      -0.183000
     31 C15        -29.1340     6.0900    -7.3390 ca         1 J96      -0.102000
     32 O7         -26.2500     6.4590    -5.2290 os         1 J96      -0.311900
     33 C20        -25.3010     5.6940    -4.5110 c3         1 J96       0.098400
     34 C21        -24.4120     6.6670    -3.7550 c3         1 J96       0.102000
     35 N3         -23.3810     5.9400    -3.0560 ns         1 J96      -0.582900
     36 C22        -22.1020     5.8750    -3.4690 c          1 J96       0.664100
     37 O22        -21.6750     6.5210    -4.4130 o          1 J96      -0.520100
     38 C23        -21.2170     4.9520    -2.6600 c3         1 J96      -0.149400
     39 C24        -20.0960     4.3740    -3.5050 c3         1 J96       0.125400
     40 O8         -19.3640     3.4760    -2.7070 os         1 J96      -0.450600
     41 C25        -18.2840     2.9050    -3.3960 c3         1 J96       0.140400
     42 C26        -17.5970     1.9300    -2.4610 c3         1 J96       0.131400
     43 O9         -16.4860     1.4010    -3.1380 os         1 J96      -0.406600
     44 C27        -15.7570     0.4830    -2.3680 c3         1 J96       0.143400
     45 C28        -14.5340     0.0850    -3.1700 c3         1 J96       0.129400
     46 O10        -13.7980    -0.8390    -2.4110 os         1 J96      -0.423600
     47 C29        -12.5940    -1.2110    -3.0290 c3         1 J96       0.139400
     48 C30        -11.8890    -2.2110    -2.1330 c3         1 J96       0.136400
     49 O11        -10.6560    -2.5120    -2.7340 os         1 J96      -0.419600
     50 C31         -9.8930    -3.4500    -2.0200 c3         1 J96       0.142400
     51 C32         -8.5700    -3.5920    -2.7460 c3         1 J96       0.132400
     52 O12         -7.7830    -4.5340    -2.0640 os         1 J96      -0.418600
     53 C33         -6.5130    -4.6870    -2.6430 c3         1 J96       0.137400
     54 C34         -5.7340    -5.7120    -1.8410 c3         1 J96       0.138400
     55 O13         -4.4580    -5.8050    -2.4220 os         1 J96      -0.421600
     56 C35         -3.6160    -6.7420    -1.8020 c3         1 J96       0.141400
     57 C36         -2.2910    -6.7070    -2.5380 c3         1 J96       0.134400
     58 O14         -1.4260    -7.6390    -1.9440 os         1 J96      -0.417600
     59 C37         -0.1760    -7.6980    -2.5820 c3         1 J96       0.136400
     60 C38          0.6710    -8.7430    -1.8820 c3         1 J96       0.138400
     61 O15          1.9050    -8.7920    -2.5500 os         1 J96      -0.420600
     62 C39          2.8040    -9.7260    -2.0090 c3         1 J96       0.140400
     63 C40          4.0560    -9.6930    -2.8650 c3         1 J96       0.135400
     64 O16          4.9830   -10.6040    -2.3320 os         1 J96      -0.418600
     65 C41          6.1640   -10.6820    -3.0890 c3         1 J96       0.136400
     66 C42          7.1000   -11.6690    -2.4170 c3         1 J96       0.139400
     67 O17          8.2610   -11.7420    -3.2040 os         1 J96      -0.421600
     68 C43          9.2490   -12.5940    -2.6830 c3         1 J96       0.140400
     69 C44         10.4030   -12.5980    -3.6670 c3         1 J96       0.135400
     70 O18         11.4310   -13.4000    -3.1440 os         1 J96      -0.417600
     71 C45         12.5260   -13.5050    -4.0180 c3         1 J96       0.136400
     72 C46         13.6110   -14.3140    -3.3330 c3         1 J96       0.138400
     73 O19         14.6760   -14.4370    -4.2400 os         1 J96      -0.418600
     74 C47         15.7990   -15.0950    -3.7120 c3         1 J96       0.119400
     75 C48         16.8420   -15.1940    -4.8160 c3         1 J96       0.101000
     76 N4          18.0760   -15.7770    -4.3450 ns         1 J96      -0.578900
     77 C49         18.3090   -17.1000    -4.2660 c          1 J96       0.666100
     78 O21         17.4840   -17.9410    -4.5950 o          1 J96      -0.596100
     79 C50         19.6880   -17.4710    -3.7610 c3         1 J96      -0.158400
     80 C51         19.6800   -18.6520    -2.7990 c3         1 J96      -0.065400
     81 C52         21.0870   -19.0130    -2.3420 c3         1 J96      -0.081400
     82 C53         21.0970   -20.1640    -1.3470 c3         1 J96      -0.060400
     83 C54         22.4960   -20.5200    -0.8630 c5         1 J96       0.040400
     84 C57         22.5310   -21.5500     0.2880 c5         1 J96       0.088700
     85 C56         23.4150   -22.7560    -0.0860 c5         1 J96       0.086700
     86 C55         23.3700   -22.8970    -1.6070 c5         1 J96      -0.020300
     87 S           23.5450   -21.2040    -2.2120 ss         1 J96      -0.333200
     88 N6          21.2760   -22.2150     0.5590 ns         1 J96      -0.564900
     89 C58         21.4610   -23.5320     0.8800 c          1 J96       0.789500
     90 O20         20.6140   -24.2940     1.3120 o          1 J96      -0.636500
     91 N5          22.7730   -23.8290     0.6300 ns         1 J96      -0.562900
     92 H22        -24.8430     8.3080    -8.3630 hn         1 J96       0.391500
     93 H20        -25.4160     6.6920    -9.7070 h1         1 J96       0.071700
     94 H21        -26.4710     6.0360    -8.4940 h1         1 J96       0.071700
     95 H18        -28.2590     7.7030    -9.3960 hc         1 J96       0.017200
     96 H19        -27.1640     7.9850   -10.7280 hc         1 J96       0.017200
     97 H16        -28.3030     5.2890    -9.8640 hc         1 J96       0.008200
     98 H17        -28.9510     6.2650   -11.1450 hc         1 J96       0.008200
     99 H14        -27.5680     5.3190   -12.6590 hc         1 J96       0.057200
    100 H15        -26.1500     5.8150   -11.7830 hc         1 J96       0.057200
    101 H          -27.8000     3.3520   -11.1330 h1         1 J96      -0.006300
    102 H6         -26.5730     3.4280    -9.2760 hn         1 J96       0.275500
    103 H7         -24.7600     3.5750    -8.0210 hn         1 J96       0.297500
    104 H1         -22.1610     4.0050    -9.2590 h1         1 J96       0.058700
    105 H8         -23.4380     6.2030    -9.3180 hc         1 J96       0.024700
    106 H9         -23.5110     6.1470    -7.5720 hc         1 J96       0.024700
    107 H10        -21.0070     6.2840    -7.4950 hc         1 J96       0.032200
    108 H11        -20.9370     6.1850    -9.2280 hc         1 J96       0.032200
    109 H23        -27.9780     8.5980    -5.7570 hc         1 J96       0.044200
    110 H24        -28.5240     8.6010    -7.4140 hc         1 J96       0.044200
    111 H28        -26.7610     3.7950    -5.3580 ha         1 J96       0.152000
    112 H27        -28.6250     2.8300    -6.6070 ha         1 J96       0.118000
    113 H26        -30.1890     4.2930    -7.8620 ha         1 J96       0.114000
    114 H25        -29.7930     6.7300    -7.9150 ha         1 J96       0.116000
    115 H29        -25.8000     5.0220    -3.8020 h1         1 J96       0.064200
    116 H30        -24.6970     5.0820    -5.1910 h1         1 J96       0.064200
    117 H31        -23.9450     7.3690    -4.4440 h1         1 J96       0.069700
    118 H32        -25.0030     7.2430    -3.0410 h1         1 J96       0.069700
    119 H33        -23.6660     5.3620    -2.2820 hn         1 J96       0.283500
    120 H34        -20.7980     5.5220    -1.8230 hc         1 J96       0.037200
    121 H35        -21.8090     4.1460    -2.2210 hc         1 J96       0.037200
    122 H36        -20.5110     3.8610    -4.3830 h1         1 J96       0.084700
    123 H37        -19.4490     5.1780    -3.8770 h1         1 J96       0.084700
    124 H38        -18.6260     2.3820    -4.3000 h1         1 J96       0.049700
    125 H39        -17.5690     3.6760    -3.7180 h1         1 J96       0.049700
    126 H40        -17.2900     2.4500    -1.5430 h1         1 J96       0.023200
    127 H41        -18.2960     1.1350    -2.1660 h1         1 J96       0.023200
    128 H42        -15.4480     0.9290    -1.4110 h1         1 J96       0.024200
    129 H43        -16.3610    -0.4050    -2.1320 h1         1 J96       0.024200
    130 H44        -14.8420    -0.3480    -4.1320 h1         1 J96       0.041700
    131 H45        -13.9330     0.9770    -3.3940 h1         1 J96       0.041700
    132 H46        -12.7770    -1.6530    -4.0180 h1         1 J96       0.035200
    133 H47        -11.9490    -0.3340    -3.1840 h1         1 J96       0.035200
    134 H48        -11.7450    -1.7770    -1.1340 h1         1 J96       0.033700
    135 H49        -12.5050    -3.1130    -2.0140 h1         1 J96       0.033700
    136 H50         -9.7230    -3.1160    -0.9880 h1         1 J96       0.032200
    137 H51        -10.4050    -4.4210    -1.9690 h1         1 J96       0.032200
    138 H52         -8.7480    -3.9050    -3.7850 h1         1 J96       0.038200
    139 H53         -8.0650    -2.6170    -2.7870 h1         1 J96       0.038200
    140 H54         -6.5950    -5.0130    -3.6900 h1         1 J96       0.035200
    141 H55         -5.9690    -3.7320    -2.6470 h1         1 J96       0.035200
    142 H56         -5.6680    -5.3900    -0.7920 h1         1 J96       0.035200
    143 H57         -6.2510    -6.6810    -1.8570 h1         1 J96       0.035200
    144 H58         -3.4670    -6.4950    -0.7420 h1         1 J96       0.034200
    145 H59         -4.0460    -7.7520    -1.8460 h1         1 J96       0.034200
    146 H60         -2.4540    -6.9370    -3.6000 h1         1 J96       0.037200
    147 H61         -1.8680    -5.6930    -2.4900 h1         1 J96       0.037200
    148 H62         -0.2890    -7.9550    -3.6440 h1         1 J96       0.035700
    149 H63          0.3290    -6.7220    -2.5420 h1         1 J96       0.035700
    150 H64          0.8030    -8.4680    -0.8260 h1         1 J96       0.036200
    151 H65          0.1650    -9.7180    -1.9080 h1         1 J96       0.036200
    152 H66          3.0500    -9.4740    -0.9680 h1         1 J96       0.035200
    153 H67          2.3760   -10.7380    -2.0100 h1         1 J96       0.035200
    154 H68          3.7980    -9.9500    -3.9020 h1         1 J96       0.036700
    155 H69          4.4720    -8.6760    -2.8810 h1         1 J96       0.036700
    156 H70          5.9500   -11.0050    -4.1170 h1         1 J96       0.035700
    157 H71          6.6490    -9.6980    -3.1590 h1         1 J96       0.035700
    158 H72          7.3330   -11.3270    -1.4000 h1         1 J96       0.036200
    159 H73          6.6130   -12.6510    -2.3330 h1         1 J96       0.036200
    160 H74          9.5910   -12.2410    -1.7000 h1         1 J96       0.035200
    161 H75          8.8660   -13.6150    -2.5510 h1         1 J96       0.035200
    162 H76         10.0560   -12.9790    -4.6380 h1         1 J96       0.036200
    163 H77         10.7560   -11.5710    -3.8340 h1         1 J96       0.036200
    164 H78         12.2290   -13.9880    -4.9600 h1         1 J96       0.035700
    165 H79         12.9140   -12.5110    -4.2780 h1         1 J96       0.035700
    166 H80         13.9290   -13.8020    -2.4140 h1         1 J96       0.035700
    167 H81         13.2190   -15.2990    -3.0420 h1         1 J96       0.035700
    168 H82         16.2110   -14.5420    -2.8560 h1         1 J96       0.030200
    169 H83         15.5370   -16.0990    -3.3540 h1         1 J96       0.030200
    170 H84         16.4500   -15.7840    -5.6450 h1         1 J96       0.066200
    171 H85         17.0670   -14.2000    -5.2040 h1         1 J96       0.066200
    172 H86         18.7850   -15.1460    -4.0110 hn         1 J96       0.310500
    173 H87         20.3020   -17.7170    -4.6340 hc         1 J96       0.055700
    174 H88         20.1690   -16.6110    -3.2880 hc         1 J96       0.055700
    175 H89         19.0630   -18.4120    -1.9280 hc         1 J96       0.055200
    176 H90         19.2170   -19.5170    -3.2800 hc         1 J96       0.055200
    177 H91         21.6940   -19.2720    -3.2150 hc         1 J96       0.044200
    178 H92         21.5600   -18.1360    -1.8870 hc         1 J96       0.044200
    179 H93         20.4900   -19.8760    -0.4800 hc         1 J96       0.053700
    180 H94         20.6170   -21.0430    -1.7840 hc         1 J96       0.053700
    181 H2          22.9920   -19.6080    -0.5270 h1         1 J96       0.078700
    182 H4          22.9080   -21.0580     1.1900 h1         1 J96       0.062700
    183 H3          24.4450   -22.6080     0.2380 h1         1 J96       0.087700
    184 H96         24.1890   -23.5060    -1.9900 h1         1 J96       0.082200
    185 H95         22.4270   -23.3380    -1.9350 h1         1 J96       0.082200
    186 H98         20.5160   -21.7190     0.9960 hn         1 J96       0.328500
    187 H97         23.0440   -24.7890     0.4820 hn         1 J96       0.329500
@<TRIPOS>BOND
     1     1     2 2   
     2     2     3 1   
     3     2    25 1   
     4     3     4 1   
     5     3    92 1   
     6     4     5 1   
     7     4    93 1   
     8     4    94 1   
     9     5     6 1   
    10     5    95 1   
    11     5    96 1   
    12     6     7 1   
    13     6    97 1   
    14     6    98 1   
    15     7     8 1   
    16     7    99 1   
    17     7   100 1   
    18     8     9 1   
    19     8    22 1   
    20     8   101 1   
    21     9    10 1   
    22     9   102 1   
    23    10    11 2   
    24    10    12 1   
    25    12    13 1   
    26    12   103 1   
    27    13    14 1   
    28    13    17 1   
    29    13   104 1   
    30    14    15 1   
    31    14    16 1   
    32    17    18 1   
    33    17   105 1   
    34    17   106 1   
    35    18    19 1   
    36    18   107 1   
    37    18   108 1   
    38    19    20 1   
    39    19    21 1   
    40    22    23 1   
    41    22    24 1   
    42    25    26 1   
    43    25   109 1   
    44    25   110 1   
    45    26    27 ar  
    46    26    31 ar  
    47    27    28 ar  
    48    27    32 1   
    49    28    29 ar  
    50    28   111 1   
    51    29    30 ar  
    52    29   112 1   
    53    30    31 ar  
    54    30   113 1   
    55    31   114 1   
    56    32    33 1   
    57    33    34 1   
    58    33   115 1   
    59    33   116 1   
    60    34    35 1   
    61    34   117 1   
    62    34   118 1   
    63    35    36 1   
    64    35   119 1   
    65    36    37 2   
    66    36    38 1   
    67    38    39 1   
    68    38   120 1   
    69    38   121 1   
    70    39    40 1   
    71    39   122 1   
    72    39   123 1   
    73    40    41 1   
    74    41    42 1   
    75    41   124 1   
    76    41   125 1   
    77    42    43 1   
    78    42   126 1   
    79    42   127 1   
    80    43    44 1   
    81    44    45 1   
    82    44   128 1   
    83    44   129 1   
    84    45    46 1   
    85    45   130 1   
    86    45   131 1   
    87    46    47 1   
    88    47    48 1   
    89    47   132 1   
    90    47   133 1   
    91    48    49 1   
    92    48   134 1   
    93    48   135 1   
    94    49    50 1   
    95    50    51 1   
    96    50   136 1   
    97    50   137 1   
    98    51    52 1   
    99    51   138 1   
   100    51   139 1   
   101    52    53 1   
   102    53    54 1   
   103    53   140 1   
   104    53   141 1   
   105    54    55 1   
   106    54   142 1   
   107    54   143 1   
   108    55    56 1   
   109    56    57 1   
   110    56   144 1   
   111    56   145 1   
   112    57    58 1   
   113    57   146 1   
   114    57   147 1   
   115    58    59 1   
   116    59    60 1   
   117    59   148 1   
   118    59   149 1   
   119    60    61 1   
   120    60   150 1   
   121    60   151 1   
   122    61    62 1   
   123    62    63 1   
   124    62   152 1   
   125    62   153 1   
   126    63    64 1   
   127    63   154 1   
   128    63   155 1   
   129    64    65 1   
   130    65    66 1   
   131    65   156 1   
   132    65   157 1   
   133    66    67 1   
   134    66   158 1   
   135    66   159 1   
   136    67    68 1   
   137    68    69 1   
   138    68   160 1   
   139    68   161 1   
   140    69    70 1   
   141    69   162 1   
   142    69   163 1   
   143    70    71 1   
   144    71    72 1   
   145    71   164 1   
   146    71   165 1   
   147    72    73 1   
   148    72   166 1   
   149    72   167 1   
   150    73    74 1   
   151    74    75 1   
   152    74   168 1   
   153    74   169 1   
   154    75    76 1   
   155    75   170 1   
   156    75   171 1   
   157    76    77 1   
   158    76   172 1   
   159    77    78 2   
   160    77    79 1   
   161    79    80 1   
   162    79   173 1   
   163    79   174 1   
   164    80    81 1   
   165    80   175 1   
   166    80   176 1   
   167    81    82 1   
   168    81   177 1   
   169    81   178 1   
   170    82    83 1   
   171    82   179 1   
   172    82   180 1   
   173    83    84 1   
   174    83    87 1   
   175    83   181 1   
   176    84    85 1   
   177    84    88 1   
   178    84   182 1   
   179    85    86 1   
   180    85    91 1   
   181    85   183 1   
   182    86    87 1   
   183    86   184 1   
   184    86   185 1   
   185    88    89 1   
   186    88   186 1   
   187    89    90 2   
   188    89    91 1   
   189    91   187 1   
@<TRIPOS>SUBSTRUCTURE
     1 J96         1 TEMP              0 ****  ****    0 ROOT
