@<TRIPOS>MOLECULE
J97
   42    44     1     0     0
SMALL
No Charge or Current Charge


@<TRIPOS>ATOM
      1 C14         -2.6110    -1.9310    -0.6330 ca         1 J97      -0.217000
      2 C01         -1.1630    -0.0260    -1.5670 cc         1 J97       0.125600
      3 C02          0.0760     0.4350    -1.0850 cd         1 J97      -0.266400
      4 C03          1.3130    -0.4380    -1.0210 c          1 J97       0.609300
      5 C04          0.1580     1.8720    -0.6620 c          1 J97       0.569200
      6 C07         -2.1830     2.1850    -1.3570 cd         1 J97      -0.035600
      7 C08         -2.2780     0.8660    -1.7240 cc         1 J97      -0.239000
      8 C09         -3.2890     3.2290    -1.4470 c3         1 J97       0.353200
      9 C17          3.6530    -0.4530     0.0660 ca         1 J97      -0.073000
     10 C18          4.6150     0.4470     0.5650 ca         1 J97      -0.123000
     11 C19          5.9070     0.0090     0.9470 ca         1 J97      -0.119600
     12 C20          6.2130    -1.3660     0.8240 ca         1 J97      -0.098000
     13 C21          5.2560    -2.2700     0.3400 ca         1 J97      -0.134000
     14 C22          3.9800    -1.8210    -0.0360 ca         1 J97      -0.150000
     15 C23          6.9420     0.9930     1.4790 c          1 J97       0.713600
     16 C26         -3.9750    -2.0700    -0.9720 ca         1 J97       0.167000
     17 C27         -4.9500    -2.2040     0.0300 ca         1 J97      -0.124000
     18 C28         -4.5770    -2.2140     1.3820 ca         1 J97      -0.071000
     19 C29         -3.2210    -2.1020     1.7280 ca         1 J97      -0.124000
     20 C30         -2.2400    -1.9670     0.7310 ca         1 J97       0.167000
     21 F10         -2.8730     4.3490    -2.0820 f          1 J97      -0.103333
     22 F11         -4.3720     2.7780    -2.1190 f          1 J97      -0.103333
     23 F12         -3.7170     3.6060    -0.2200 f          1 J97      -0.103333
     24 N06         -0.9840     2.6140    -0.8280 ns         1 J97      -0.349100
     25 N15          2.3760     0.0750    -0.2830 ns         1 J97      -0.112000
     26 O05          1.1440     2.4310    -0.2120 o          1 J97      -0.547000
     27 O16          1.4110    -1.5200    -1.5870 o          1 J97      -0.624100
     28 O24          8.0450     0.5700     1.7970 o          1 J97      -0.719500
     29 O25          6.6360     2.1740     1.5710 o          1 J97      -0.719500
     30 S13         -1.3930    -1.7470    -1.9500 ss         1 J97       0.171400
     31 Cl1         -0.5580    -1.8910     1.2400 cl         1 J97      -0.163000
     32 Cl2         -4.4950    -2.0820    -2.6570 cl         1 J97      -0.163000
     33 H2          -3.2080     0.4710    -2.1210 ha         1 J97       0.217000
     34 H3           4.3580     1.5000     0.6520 ha         1 J97       0.133000
     35 H4           7.1950    -1.7380     1.1090 ha         1 J97       0.128000
     36 H5           5.5020    -3.3260     0.2590 ha         1 J97       0.086000
     37 H6           3.2580    -2.5520    -0.3880 ha         1 J97       0.119000
     38 H7          -5.9970    -2.3030    -0.2450 ha         1 J97       0.132000
     39 H8          -5.3330    -2.3190     2.1580 ha         1 J97       0.120000
     40 H9          -2.9270    -2.1280     2.7750 ha         1 J97       0.132000
     41 H10          2.2050     0.9980     0.0920 hn         1 J97       0.191000
     42 H1          -0.8830     3.5790    -0.5340 hn         1 J97       0.344500
@<TRIPOS>BOND
     1     1    16 ar  
     2     1    20 ar  
     3     1    30 1   
     4     2     3 2   
     5     2     7 1   
     6     2    30 1   
     7     3     4 1   
     8     3     5 1   
     9     4    25 1   
    10     4    27 2   
    11     5    24 1   
    12     5    26 2   
    13     6     7 2   
    14     6     8 1   
    15     6    24 1   
    16     7    33 1   
    17     8    21 1   
    18     8    22 1   
    19     8    23 1   
    20     9    10 ar  
    21     9    14 ar  
    22     9    25 1   
    23    10    11 ar  
    24    10    34 1   
    25    11    12 ar  
    26    11    15 1   
    27    12    13 ar  
    28    12    35 1   
    29    13    14 ar  
    30    13    36 1   
    31    14    37 1   
    32    15    28 1   
    33    15    29 1   
    34    16    17 ar  
    35    16    32 1   
    36    17    18 ar  
    37    17    38 1   
    38    18    19 ar  
    39    18    39 1   
    40    19    20 ar  
    41    19    40 1   
    42    20    31 1   
    43    24    42 1   
    44    25    41 1   
@<TRIPOS>SUBSTRUCTURE
     1 J97         1 TEMP              0 ****  ****    0 ROOT
