@<TRIPOS>MOLECULE
J97
   42    44     1     0     0
SMALL
bcc


@<TRIPOS>ATOM
      1 C14         -2.9600    -1.9310    -0.0980 ca         1 J97      -0.090100
      2 C01         -0.9700    -0.0540    -0.2150 cc         1 J97       0.125600
      3 C02          0.2940     0.5160    -0.2220 cd         1 J97      -0.266400
      4 C03          1.4830    -0.3620    -0.0660 c          1 J97       0.676300
      5 C04          0.4380     1.9510    -0.3800 c          1 J97       0.711700
      6 C07         -1.9560     2.1040    -0.5180 cd         1 J97      -0.035600
      7 C08         -2.1160     0.7730    -0.3690 cc         1 J97      -0.189000
      8 C09         -3.1170     3.0470    -0.6950 c3         1 J97       0.717100
      9 C17          3.9580    -0.3410     0.0430 ca         1 J97       0.019600
     10 C18          5.0310     0.5530     0.0820 ca         1 J97      -0.141000
     11 C19          6.3410     0.1150     0.1990 ca         1 J97      -0.119600
     12 C20          6.5860    -1.2540     0.2800 ca         1 J97      -0.116000
     13 C21          5.5280    -2.1470     0.2420 ca         1 J97      -0.152000
     14 C22          4.2140    -1.7110     0.1230 ca         1 J97      -0.168000
     15 C23          7.4870     1.1220     0.2400 c          1 J97       0.924200
     16 C26         -3.6040    -2.2130    -1.3050 ca         1 J97       0.075400
     17 C27         -4.9640    -2.4710    -1.3570 ca         1 J97      -0.142000
     18 C28         -5.7000    -2.4520    -0.1840 ca         1 J97      -0.089000
     19 C29         -5.0960    -2.1700     1.0310 ca         1 J97      -0.142000
     20 C30         -3.7350    -1.9150     1.0640 ca         1 J97       0.075400
     21 F10         -3.0310     3.6840    -1.8640 f          1 J97      -0.224633
     22 F11         -4.2780     2.4080    -0.6560 f          1 J97      -0.224633
     23 F12         -3.1220     3.9730     0.2650 f          1 J97      -0.224633
     24 N06         -0.7300     2.6610    -0.5220 ns         1 J97      -0.416100
     25 N15          2.6890     0.2330    -0.0870 ns         1 J97      -0.438100
     26 O05          1.5020     2.5690    -0.3960 o          1 J97      -0.622500
     27 O16          1.3150    -1.5690     0.0720 o          1 J97      -0.624100
     28 O24          8.6360     0.6500     0.3170 o          1 J97      -0.824800
     29 O25          7.1740     2.3270     0.1920 o          1 J97      -0.824800
     30 S13         -1.1960    -1.7860    -0.0210 ss         1 J97       0.044500
     31 CL1         -3.0050    -1.5310     2.5770 cl         1 J97      -0.071400
     32 CL2         -2.7100    -2.2040    -2.7780 cl         1 J97      -0.071400
     33 H2          -3.1080     0.3550    -0.3670 ha         1 J97       0.167000
     34 H3           4.8430     1.6190     0.0190 ha         1 J97       0.151000
     35 H4           7.6010    -1.6150     0.3730 ha         1 J97       0.146000
     36 H5           5.7170    -3.2120     0.3030 ha         1 J97       0.104000
     37 H6           3.4160    -2.4340     0.0950 ha         1 J97       0.137000
     38 H7          -5.4420    -2.6850    -2.3030 ha         1 J97       0.150000
     39 H8          -6.7630    -2.6510    -0.2170 ha         1 J97       0.138000
     40 H9          -5.6780    -2.1500     1.9410 ha         1 J97       0.150000
     41 H10          2.6590     1.2470    -0.1910 hn         1 J97       0.357500
     42 H1          -0.6130     3.6620    -0.6310 hn         1 J97       0.344500
@<TRIPOS>BOND
     1     1    16 ar  
     2     1    20 ar  
     3     1    30 1   
     4     2     3 2   
     5     2     7 1   
     6     2    30 1   
     7     3     4 1   
     8     3     5 1   
     9     4    25 1   
    10     4    27 2   
    11     5    24 1   
    12     5    26 2   
    13     6     7 2   
    14     6     8 1   
    15     6    24 1   
    16     7    33 1   
    17     8    21 1   
    18     8    22 1   
    19     8    23 1   
    20     9    10 ar  
    21     9    14 ar  
    22     9    25 1   
    23    10    11 ar  
    24    10    34 1   
    25    11    12 ar  
    26    11    15 1   
    27    12    13 ar  
    28    12    35 1   
    29    13    14 ar  
    30    13    36 1   
    31    14    37 1   
    32    15    28 1   
    33    15    29 1   
    34    16    17 ar  
    35    16    32 1   
    36    17    18 ar  
    37    17    38 1   
    38    18    19 ar  
    39    18    39 1   
    40    19    20 ar  
    41    19    40 1   
    42    20    31 1   
    43    24    42 1   
    44    25    41 1   
@<TRIPOS>SUBSTRUCTURE
     1 J97         1 TEMP              0 ****  ****    0 ROOT
