@<TRIPOS>MOLECULE
J98
   77    81     1     0     0
SMALL
abcg2


@<TRIPOS>ATOM
      1 N1         -12.5750   -32.8420    10.0040 nh         1 J98      -0.819100
      2 N3         -12.0370   -27.8270     9.6100 nb         1 J98      -0.272500
      3 C4         -11.6600   -31.8490     9.9930 cc         1 J98       0.718300
      4 C5         -10.7810   -29.8390     9.8810 cd         1 J98       0.270000
      5 C6         -10.8430   -28.3690     9.7740 ca         1 J98       0.180000
      6 C7         -12.0760   -26.4880     9.5050 ca         1 J98       0.399900
      7 C8         -10.9190   -25.7150     9.5750 ca         1 J98      -0.375000
      8 C10         -9.6190   -30.5380     9.9590 cc         1 J98      -0.235000
      9 C13        -11.3740   -35.9380    11.6450 cp         1 J98      -0.079000
     10 C15         -9.7270   -35.8790    13.4710 ca         1 J98      -0.129000
     11 C17         -9.9100   -37.2070    15.4460 ca         1 J98      -0.308500
     12 C20         -7.2720   -41.5540    13.8840 c3         1 J98       0.150100
     13 C21         -6.3060   -40.2240    15.6700 c6         1 J98       0.168300
     14 C22         -7.1710   -38.9670    15.6320 c6         1 J98       0.151300
     15 C24        -11.6420   -37.2890    13.7870 ca         1 J98      -0.206300
     16 C26        -11.2460   -36.7720    10.5390 ca         1 J98      -0.072000
     17 C28        -12.0090   -35.0100     9.0610 ca         1 J98      -0.041300
     18 C1         -16.0630   -31.8450    11.2170 c3         1 J98      -0.086100
     19 C3         -13.9970   -32.5330     9.9600 c3         1 J98       0.243800
     20 N2         -11.9310   -30.5850     9.9040 nd         1 J98      -0.688000
     21 N4         -13.2910   -25.9370     9.2940 nv         1 J98      -1.068400
     22 C9          -9.7180   -26.4000     9.7540 ca         1 J98       0.399900
     23 N5          -8.5390   -25.7520     9.8760 nv         1 J98      -1.068400
     24 N6          -9.6820   -27.7360     9.8510 nb         1 J98      -0.272500
     25 S1          -9.9510   -32.2250    10.0660 ss         1 J98      -0.117400
     26 C11        -12.1440   -34.1820    10.1790 ca         1 J98       0.257000
     27 C12        -11.8270   -34.6380    11.4520 ca         1 J98      -0.072000
     28 C14        -10.9310   -36.3840    12.9900 cp         1 J98       0.069000
     29 C16         -9.2080   -36.2830    14.6880 ca         1 J98       0.008000
     30 O1          -8.2210   -36.8580    17.4120 o          1 J98      -0.528000
     31 O2         -10.2510   -38.2750    17.8240 o          1 J98      -0.528000
     32 N7          -8.3410   -39.1820    16.4900 n3         1 J98      -0.711500
     33 C18         -9.1220   -40.3630    16.1040 c6         1 J98       0.151300
     34 C19         -8.1980   -41.5780    16.1270 c6         1 J98       0.168300
     35 N8          -7.0140   -41.4340    15.3050 n3         1 J98      -0.711600
     36 C23        -11.1320   -37.7010    15.0110 ca         1 J98       0.025000
     37 C25        -12.9690   -37.8270    13.3310 c3         1 J98       0.360300
     38 F1         -13.5990   -38.4950    14.3020 f          1 J98      -0.110000
     39 F2         -13.7980   -36.8590    12.9300 f          1 J98      -0.110000
     40 F3         -12.8350   -38.6740    12.3020 f          1 J98      -0.110000
     41 C27        -11.5620   -36.3100     9.2710 ca         1 J98      -0.112000
     42 C29        -12.3100   -34.5020     7.6840 c3         1 J98      -0.049800
     43 H1         -10.9520   -24.6370     9.4950 ha         1 J98       0.125000
     44 H2          -8.6100   -30.1610     9.9640 h4         1 J98       0.173000
     45 H3          -9.1790   -35.1660    12.8690 ha         1 J98       0.134000
     46 H4          -7.7370   -42.5190    13.6800 h1         1 J98       0.032033
     47 H5          -7.9210   -40.7790    13.4560 h1         1 J98       0.032033
     48 H6          -6.3260   -41.5250    13.3400 h1         1 J98       0.032033
     49 H7          -5.9120   -40.3430    16.6840 h1         1 J98       0.065950
     50 H8          -5.4530   -40.0850    15.0030 h1         1 J98       0.065950
     51 H9          -6.5910   -38.1250    16.0040 h1         1 J98       0.058700
     52 H10         -7.4810   -38.7400    14.6040 h1         1 J98       0.058700
     53 H11        -10.8680   -37.7790    10.6590 ha         1 J98       0.123000
     54 H12        -16.4800   -31.5910    12.1910 hc         1 J98       0.033700
     55 H13        -16.2240   -30.9920    10.5560 hc         1 J98       0.033700
     56 H14        -16.6380   -32.6840    10.8200 hc         1 J98       0.033700
     57 H15        -14.4430   -33.0310    12.0030 hc         1 J98       0.051200
     58 H16        -14.0340   -31.3430    11.7450 hc         1 J98       0.051200
     59 H17        -14.1510   -31.7080     9.2620 h1         1 J98       0.059200
     60 H18        -14.5100   -33.4020     9.5430 h1         1 J98       0.059200
     61 H19        -14.1020   -26.5100     9.4540 hn         1 J98       0.484000
     62 H20        -13.4150   -24.9470     9.4170 hn         1 J98       0.484000
     63 H21         -7.6950   -26.2940     9.7970 hn         1 J98       0.484000
     64 H22         -8.4730   -24.7870     9.6000 hn         1 J98       0.484000
     65 H23        -11.9290   -33.9660    12.2960 ha         1 J98       0.134000
     66 H24         -8.2660   -35.8760    15.0300 ha         1 J98       0.143000
     67 H25         -9.5640   -40.2300    15.1090 h1         1 J98       0.058700
     68 H26         -9.9310   -40.5190    16.8150 h1         1 J98       0.058700
     69 H27         -8.7620   -42.4550    15.8040 h1         1 J98       0.065950
     70 H28         -7.8860   -41.7540    17.1610 h1         1 J98       0.065950
     71 H30        -11.6820   -38.3960    15.6310 ha         1 J98       0.151000
     72 H31        -11.4400   -36.9710     8.4220 ha         1 J98       0.122000
     73 H32        -13.3590   -34.2210     7.5750 hc         1 J98       0.051700
     74 H33        -11.7160   -33.6190     7.4470 hc         1 J98       0.051700
     75 H34        -12.0930   -35.2620     6.9350 hc         1 J98       0.051700
     76 S2          -9.1850   -37.8370    16.9420 sy         1 J98       1.150600
     77 C2         -14.5840   -32.1870    11.3220 c3         1 J98      -0.101400
@<TRIPOS>BOND
     1     1     3 1   
     2     1    19 1   
     3     1    26 1   
     4     2     5 ar  
     5     2     6 ar  
     6     3    20 2   
     7     3    25 1   
     8     4     5 1   
     9     4     8 2   
    10     4    20 1   
    11     5    24 ar  
    12     6     7 ar  
    13     6    21 1   
    14     7    22 ar  
    15     7    43 1   
    16     8    25 1   
    17     8    44 1   
    18     9    16 ar  
    19     9    27 ar  
    20     9    28 1   
    21    10    28 ar  
    22    10    29 ar  
    23    10    45 1   
    24    11    29 ar  
    25    11    36 ar  
    26    11    76 1   
    27    12    35 1   
    28    12    46 1   
    29    12    47 1   
    30    12    48 1   
    31    13    14 1   
    32    13    35 1   
    33    13    49 1   
    34    13    50 1   
    35    14    32 1   
    36    14    51 1   
    37    14    52 1   
    38    15    28 ar  
    39    15    36 ar  
    40    15    37 1   
    41    16    41 ar  
    42    16    53 1   
    43    17    26 ar  
    44    17    41 ar  
    45    17    42 1   
    46    18    54 1   
    47    18    55 1   
    48    18    56 1   
    49    18    77 1   
    50    19    59 1   
    51    19    60 1   
    52    19    77 1   
    53    21    61 1   
    54    21    62 1   
    55    22    23 1   
    56    22    24 ar  
    57    23    63 1   
    58    23    64 1   
    59    26    27 ar  
    60    27    65 1   
    61    29    66 1   
    62    30    76 2   
    63    31    76 2   
    64    32    33 1   
    65    32    76 1   
    66    33    34 1   
    67    33    67 1   
    68    33    68 1   
    69    34    35 1   
    70    34    69 1   
    71    34    70 1   
    72    36    71 1   
    73    37    38 1   
    74    37    39 1   
    75    37    40 1   
    76    41    72 1   
    77    42    73 1   
    78    42    74 1   
    79    42    75 1   
    80    57    77 1   
    81    58    77 1   
@<TRIPOS>SUBSTRUCTURE
     1 J98         1 TEMP              0 ****  ****    0 ROOT
