@<TRIPOS>MOLECULE
J98
   77    81     1     0     0
SMALL
No Charge or Current Charge


@<TRIPOS>ATOM
      1 N1         -12.2860   -32.7690    10.1420 nh         1 J98      -0.819100
      2 N3         -12.1510   -27.6890     9.0200 nb         1 J98      -0.272500
      3 C4         -11.4360   -31.7000     9.9580 cc         1 J98       0.718300
      4 C5         -10.7800   -29.5930     9.6780 cd         1 J98       0.270000
      5 C6         -10.9680   -28.1270     9.5170 ca         1 J98       0.180000
      6 C7         -12.2870   -26.3670     8.8700 ca         1 J98       0.399900
      7 C8         -11.2790   -25.4670     9.1970 ca         1 J98      -0.375000
      8 C10         -9.5520   -30.2190     9.6300 cc         1 J98      -0.235000
      9 C13        -11.0820   -35.9490    11.6760 cp         1 J98      -0.079000
     10 C15         -9.4710   -36.0090    13.5760 ca         1 J98      -0.129000
     11 C17         -9.8150   -37.3710    15.5530 ca         1 J98      -0.308500
     12 C20         -7.7320   -41.5090    13.7000 c3         1 J98       0.150100
     13 C21         -6.4490   -40.5390    15.6020 c6         1 J98       0.168300
     14 C22         -7.2540   -39.2180    15.8210 c6         1 J98       0.151300
     15 C24        -11.5010   -37.3600    13.7670 ca         1 J98      -0.206300
     16 C26        -11.0340   -36.7830    10.5370 ca         1 J98      -0.072000
     17 C28        -11.8220   -34.9600     9.1170 ca         1 J98      -0.041300
     18 C1         -15.7230   -31.9500    11.7900 c3         1 J98      -0.086100
     19 C3         -13.7450   -32.5330    10.2520 c3         1 J98       0.243800
     20 N2         -11.8610   -30.4540     9.8570 nd         1 J98      -0.688000
     21 N4         -13.4700   -25.9360     8.3770 nv         1 J98      -1.068400
     22 C9         -10.1010   -26.0130     9.6940 ca         1 J98       0.399900
     23 N5          -9.0590   -25.2220    10.0370 nv         1 J98      -1.068400
     24 N6          -9.9270   -27.3290     9.8570 nb         1 J98      -0.272500
     25 S1          -9.7100   -31.9390     9.8350 ss         1 J98      -0.117400
     26 C11        -11.8730   -34.1100    10.2490 ca         1 J98       0.257000
     27 C12        -11.4950   -34.6090    11.5070 ca         1 J98      -0.072000
     28 C14        -10.6900   -36.4550    13.0210 cp         1 J98       0.069000
     29 C16         -9.0310   -36.4570    14.8290 ca         1 J98       0.008000
     30 O1          -8.2440   -37.0610    17.7070 o          1 J98      -0.528000
     31 O2         -10.4050   -38.3910    17.9540 o          1 J98      -0.528000
     32 N7          -8.4130   -39.4080    16.7460 n3         1 J98      -0.711500
     33 C18         -9.2730   -40.5400    16.2830 c6         1 J98       0.151300
     34 C19         -8.4550   -41.8510    16.0580 c6         1 J98       0.168300
     35 N8          -7.3100   -41.6620    15.1130 n3         1 J98      -0.711600
     36 C23        -11.0450   -37.8130    15.0280 ca         1 J98       0.025000
     37 C25        -12.8590   -37.8530    13.2350 c3         1 J98       0.360300
     38 F1         -13.6090   -38.4570    14.1840 f          1 J98      -0.110000
     39 F2         -13.6160   -36.8430    12.7480 f          1 J98      -0.110000
     40 F3         -12.7050   -38.7520    12.2380 f          1 J98      -0.110000
     41 C27        -11.4000   -36.2950     9.2730 ca         1 J98      -0.112000
     42 C29        -12.2060   -34.4510     7.7300 c3         1 J98      -0.049800
     43 H1         -11.4040   -24.3970     9.0690 ha         1 J98       0.125000
     44 H2          -8.5750   -29.7780     9.4870 h4         1 J98       0.173000
     45 H3          -8.8540   -35.3110    13.0160 ha         1 J98       0.134000
     46 H4          -8.3130   -42.3820    13.3750 h1         1 J98       0.032033
     47 H5          -8.3520   -40.6140    13.5560 h1         1 J98       0.032033
     48 H6          -6.8550   -41.4260    13.0430 h1         1 J98       0.032033
     49 H7          -5.9850   -40.8170    16.5600 h1         1 J98       0.065950
     50 H8          -5.6250   -40.3470    14.8990 h1         1 J98       0.065950
     51 H9          -6.5620   -38.4620    16.2200 h1         1 J98       0.058700
     52 H10         -7.5960   -38.8510    14.8430 h1         1 J98       0.058700
     53 H11        -10.7040   -37.8150    10.6390 ha         1 J98       0.123000
     54 H12        -16.0010   -31.7110    12.8240 hc         1 J98       0.033700
     55 H13        -16.0300   -31.1140    11.1500 hc         1 J98       0.033700
     56 H14        -16.2790   -32.8450    11.4840 hc         1 J98       0.033700
     57 H15        -13.9250   -33.0060    12.3600 hc         1 J98       0.051200
     58 H16        -13.6770   -31.2920    12.0300 hc         1 J98       0.051200
     59 H17        -14.0610   -31.7340     9.5670 h1         1 J98       0.059200
     60 H18        -14.2850   -33.4330     9.9270 h1         1 J98       0.059200
     61 H19        -14.2460   -26.5940     8.3460 hn         1 J98       0.484000
     62 H20        -13.7080   -24.9510     8.4590 hn         1 J98       0.484000
     63 H21         -8.1540   -25.6600    10.1990 hn         1 J98       0.484000
     64 H22         -9.0510   -24.2540     9.7260 hn         1 J98       0.484000
     65 H23        -11.5310   -33.9500    12.3700 ha         1 J98       0.134000
     66 H24         -8.0810   -36.0990    15.2230 ha         1 J98       0.143000
     67 H25         -9.7820   -40.2780    15.3450 h1         1 J98       0.058700
     68 H26        -10.0580   -40.7570    17.0220 h1         1 J98       0.058700
     69 H27         -9.1310   -42.6410    15.6970 h1         1 J98       0.065950
     70 H28         -8.0770   -42.1870    17.0350 h1         1 J98       0.065950
     71 H30        -11.6430   -38.5150    15.6070 ha         1 J98       0.151000
     72 H31        -11.3530   -36.9590     8.4120 ha         1 J98       0.122000
     73 H32        -13.2680   -34.1830     7.6900 hc         1 J98       0.051700
     74 H33        -11.6250   -33.5610     7.4620 hc         1 J98       0.051700
     75 H34        -12.0270   -35.2040     6.9540 hc         1 J98       0.051700
     76 S2          -9.2490   -37.9750    17.1520 sy         1 J98       1.150600
     77 C2         -14.2040   -32.1890    11.6850 c3         1 J98      -0.101400
@<TRIPOS>BOND
     1     1     3 1   
     2     1    19 1   
     3     1    26 1   
     4     2     5 ar  
     5     2     6 ar  
     6     3    20 2   
     7     3    25 1   
     8     4     5 1   
     9     4     8 2   
    10     4    20 1   
    11     5    24 ar  
    12     6     7 ar  
    13     6    21 1   
    14     7    22 ar  
    15     7    43 1   
    16     8    25 1   
    17     8    44 1   
    18     9    16 ar  
    19     9    27 ar  
    20     9    28 1   
    21    10    28 ar  
    22    10    29 ar  
    23    10    45 1   
    24    11    29 ar  
    25    11    36 ar  
    26    11    76 1   
    27    12    35 1   
    28    12    46 1   
    29    12    47 1   
    30    12    48 1   
    31    13    14 1   
    32    13    35 1   
    33    13    49 1   
    34    13    50 1   
    35    14    32 1   
    36    14    51 1   
    37    14    52 1   
    38    15    28 ar  
    39    15    36 ar  
    40    15    37 1   
    41    16    41 ar  
    42    16    53 1   
    43    17    26 ar  
    44    17    41 ar  
    45    17    42 1   
    46    18    54 1   
    47    18    55 1   
    48    18    56 1   
    49    18    77 1   
    50    19    59 1   
    51    19    60 1   
    52    19    77 1   
    53    21    61 1   
    54    21    62 1   
    55    22    23 1   
    56    22    24 ar  
    57    23    63 1   
    58    23    64 1   
    59    26    27 ar  
    60    27    65 1   
    61    29    66 1   
    62    30    76 2   
    63    31    76 2   
    64    32    33 1   
    65    32    76 1   
    66    33    34 1   
    67    33    67 1   
    68    33    68 1   
    69    34    35 1   
    70    34    69 1   
    71    34    70 1   
    72    36    71 1   
    73    37    38 1   
    74    37    39 1   
    75    37    40 1   
    76    41    72 1   
    77    42    73 1   
    78    42    74 1   
    79    42    75 1   
    80    57    77 1   
    81    58    77 1   
@<TRIPOS>SUBSTRUCTURE
     1 J98         1 TEMP              0 ****  ****    0 ROOT
