@<TRIPOS>MOLECULE
J99
   55    59     1     0     0
SMALL
No Charge or Current Charge


@<TRIPOS>ATOM
      1 C           32.6680    42.0530     8.2860 c3         1 J99      -0.086100
      2 F           34.3150    45.0340    12.3860 f          1 J99      -0.176000
      3 N           27.8890    45.2170    10.3490 nb         1 J99      -0.726000
      4 O           30.7760    43.2990     9.0800 os         1 J99      -0.362100
      5 C1          32.0100    43.4450     8.3390 c3         1 J99       0.218600
      6 N1          28.5950    43.2340    10.9880 nv         1 J99      -1.043900
      7 C2          29.8590    44.3380     9.2080 ca         1 J99       0.020100
      8 N2          28.4560    49.6130     6.6150 nc         1 J99      -0.517800
      9 C3          29.9220    45.4910     8.4040 ca         1 J99      -0.114000
     10 N3          29.8250    49.4950     6.6590 na         1 J99       0.125800
     11 C4          29.0010    46.5310     8.6090 ca         1 J99      -0.076000
     12 N4          32.4040    47.1860     6.6020 n          1 J99      -0.411800
     13 C5          27.9910    46.3330     9.5840 ca         1 J99       0.367900
     14 C6          28.8080    44.2720    10.1590 ca         1 J99       0.578900
     15 C7          29.1140    47.7890     7.8330 cd         1 J99      -0.108000
     16 C8          28.0500    48.5790     7.3200 cd         1 J99       0.303300
     17 C9          30.6430    50.5320     6.0060 c3         1 J99       0.071900
     18 C10         30.2750    48.3590     7.3450 cc         1 J99      -0.159300
     19 C11         31.7340    48.0300     7.6360 c3         1 J99       0.173300
     20 C12         32.2050    47.5650     5.1820 c3         1 J99       0.074300
     21 C13         33.0430    45.9590     6.9280 c          1 J99       0.610700
     22 C14         33.3610    45.6740     8.3790 ca         1 J99      -0.141600
     23 C15         34.1480    46.6080     9.0910 ca         1 J99      -0.072000
     24 C16         34.4720    46.3920    10.4390 ca         1 J99      -0.144000
     25 C17         34.0120    45.2400    11.0860 ca         1 J99       0.180000
     26 C18         33.2360    44.3010    10.3950 ca         1 J99      -0.125000
     27 C19         32.9040    44.4930     9.0350 ca         1 J99      -0.051300
     28 C20         26.5980    48.2630     7.4710 cx         1 J99      -0.170000
     29 C21         25.7460    49.0300     8.4610 cx         1 J99      -0.117900
     30 C22         25.5020    49.1910     6.9810 cx         1 J99      -0.117900
     31 H           33.6280    42.1080     7.7590 hc         1 J99       0.054033
     32 HA          32.8500    41.6580     9.2920 hc         1 J99       0.054033
     33 HB          32.0240    41.3470     7.7500 hc         1 J99       0.054033
     34 H1          31.7880    43.7330     7.3060 h1         1 J99       0.066700
     35 HN1         27.6730    43.1880    11.4020 hn         1 J99       0.473500
     36 HN1A        29.0410    42.3560    10.7460 hn         1 J99       0.473500
     37 H3          30.6330    45.5690     7.6010 ha         1 J99       0.127000
     38 H5          27.2610    47.1110     9.7970 h4         1 J99       0.026100
     39 H9          30.7490    50.2950     4.9410 h1         1 J99       0.058367
     40 H9A         30.1510    51.5070     6.1080 h1         1 J99       0.058367
     41 H9B         31.6340    50.5890     6.4680 h1         1 J99       0.058367
     42 H11         31.7590    47.5400     8.6150 h1         1 J99       0.065200
     43 H11A        32.3060    48.9590     7.7460 h1         1 J99       0.065200
     44 H12         31.1720    47.3480     4.8800 h1         1 J99       0.050700
     45 H12A        32.4040    48.6350     5.0550 h1         1 J99       0.050700
     46 H12B        32.8900    47.0170     4.5240 h1         1 J99       0.050700
     47 H15         34.5150    47.5040     8.5930 ha         1 J99       0.120000
     48 H16         35.0760    47.1140    10.9810 ha         1 J99       0.138000
     49 H18         32.8790    43.4230    10.9270 ha         1 J99       0.147000
     50 H20         26.3950    47.1990     7.3740 hc         1 J99       0.090700
     51 H21         25.0130    48.4720     9.0390 hc         1 J99       0.076450
     52 H21A        26.2050    49.8620     8.9910 hc         1 J99       0.076450
     53 H22         25.7820    50.1390     6.5270 hc         1 J99       0.076450
     54 H22A        24.6060    48.7390     6.5640 hc         1 J99       0.076450
     55 O1          33.3810    45.1680     6.0570 o          1 J99      -0.595100
@<TRIPOS>BOND
     1     1     5 1   
     2     1    31 1   
     3     1    32 1   
     4     1    33 1   
     5     2    25 1   
     6     3    13 ar  
     7     3    14 ar  
     8     4     5 1   
     9     4     7 1   
    10     5    27 1   
    11     5    34 1   
    12     6    14 1   
    13     6    35 1   
    14     6    36 1   
    15     7     9 ar  
    16     7    14 ar  
    17     8    10 1   
    18     8    16 2   
    19     9    11 ar  
    20     9    37 1   
    21    10    17 1   
    22    10    18 1   
    23    11    13 ar  
    24    11    15 1   
    25    12    19 1   
    26    12    20 1   
    27    12    21 1   
    28    13    38 1   
    29    15    16 1   
    30    15    18 2   
    31    16    28 1   
    32    17    39 1   
    33    17    40 1   
    34    17    41 1   
    35    18    19 1   
    36    19    42 1   
    37    19    43 1   
    38    20    44 1   
    39    20    45 1   
    40    20    46 1   
    41    21    22 1   
    42    21    55 2   
    43    22    23 ar  
    44    22    27 ar  
    45    23    24 ar  
    46    23    47 1   
    47    24    25 ar  
    48    24    48 1   
    49    25    26 ar  
    50    26    27 ar  
    51    26    49 1   
    52    28    29 1   
    53    28    30 1   
    54    28    50 1   
    55    29    30 1   
    56    29    51 1   
    57    29    52 1   
    58    30    53 1   
    59    30    54 1   
@<TRIPOS>SUBSTRUCTURE
     1 J99         1 TEMP              0 ****  ****    0 ROOT
