@<TRIPOS>MOLECULE
J99
   55    59     1     0     0
SMALL
abcg2


@<TRIPOS>ATOM
      1 C           32.7070    42.1680     8.2050 c3         1 J99      -0.086100
      2 F           34.0910    45.0050    12.4090 f          1 J99      -0.176000
      3 N           28.0940    45.2320    10.4080 nb         1 J99      -0.726000
      4 O           30.7540    43.2570     9.0050 os         1 J99      -0.362100
      5 C1          31.9970    43.5050     8.3030 c3         1 J99       0.218600
      6 N1          28.9860    43.1810    11.0630 nv         1 J99      -1.043900
      7 C2          29.8950    44.3120     9.1320 ca         1 J99       0.020100
      8 N2          28.4940    49.5790     6.6400 nc         1 J99      -0.517800
      9 C3          29.8750    45.4090     8.3060 ca         1 J99      -0.114000
     10 N3          29.8370    49.4610     6.6750 na         1 J99       0.125800
     11 C4          28.9960    46.4740     8.5550 ca         1 J99      -0.076000
     12 N4          32.2630    47.0550     6.6370 n          1 J99      -0.411800
     13 C5          28.1220    46.3190     9.6240 ca         1 J99       0.367900
     14 C6          28.9650    44.2480    10.1960 ca         1 J99       0.578900
     15 C7          29.0710    47.7000     7.7590 cd         1 J99      -0.108000
     16 C8          28.0130    48.5190     7.2910 cd         1 J99       0.303300
     17 C9          30.6480    50.5470     6.1580 c3         1 J99       0.071900
     18 C10         30.2350    48.3420     7.3350 cc         1 J99      -0.159300
     19 C11         31.6710    48.0040     7.5970 c3         1 J99       0.173300
     20 C12         32.1110    47.3770     5.2230 c3         1 J99       0.074300
     21 C13         33.0320    45.9940     6.9890 c          1 J99       0.610700
     22 C14         33.2690    45.7300     8.4500 ca         1 J99      -0.141600
     23 C15         34.0280    46.6370     9.1920 ca         1 J99      -0.072000
     24 C16         34.3240    46.4020    10.5250 ca         1 J99      -0.144000
     25 C17         33.8300    45.2450    11.1010 ca         1 J99       0.180000
     26 C18         33.0840    44.3240    10.3960 ca         1 J99      -0.125000
     27 C19         32.8090    44.5500     9.0480 ca         1 J99      -0.051300
     28 C20         26.5650    48.2870     7.4570 cx         1 J99      -0.170000
     29 C21         25.7330    49.2250     8.3090 cx         1 J99      -0.117900
     30 C22         25.5500    49.1940     6.8190 cx         1 J99      -0.117900
     31 H           33.6480    42.2950     7.6700 hc         1 J99       0.054033
     32 HA          32.9210    41.7660     9.1970 hc         1 J99       0.054033
     33 HB          32.0860    41.4560     7.6600 hc         1 J99       0.054033
     34 H1          31.7700    43.8490     7.2970 h1         1 J99       0.066700
     35 HN1         28.1470    43.0500    11.6070 hn         1 J99       0.473500
     36 HN1A        29.4070    42.3320    10.7200 hn         1 J99       0.473500
     37 H3          30.5320    45.4660     7.4550 ha         1 J99       0.127000
     38 H5          27.4220    47.1060     9.8780 h4         1 J99       0.026100
     39 H9          30.0950    51.0270     5.3550 h1         1 J99       0.058367
     40 H9A         30.8570    51.2790     6.9410 h1         1 J99       0.058367
     41 H9B         31.5860    50.1660     5.7660 h1         1 J99       0.058367
     42 H11         31.7330    47.5680     8.5880 h1         1 J99       0.065200
     43 H11A        32.2690    48.9180     7.6060 h1         1 J99       0.065200
     44 H12         31.0670    47.6040     5.0100 h1         1 J99       0.050700
     45 H12A        32.7250    48.2420     4.9590 h1         1 J99       0.050700
     46 H12B        32.4230    46.5240     4.6310 h1         1 J99       0.050700
     47 H15         34.3860    47.5430     8.7210 ha         1 J99       0.120000
     48 H16         34.9120    47.0980    11.1080 ha         1 J99       0.138000
     49 H18         32.7140    43.4400    10.8970 ha         1 J99       0.147000
     50 H20         26.2980    47.2400     7.5290 hc         1 J99       0.090700
     51 H21         24.9660    48.7880     8.9350 hc         1 J99       0.076450
     52 H21A        26.2470    50.0780     8.7350 hc         1 J99       0.076450
     53 H22         25.9270    50.0330     6.2500 hc         1 J99       0.076450
     54 H22A        24.6540    48.7360     6.4230 hc         1 J99       0.076450
     55 O1          33.5390    45.2390     6.1540 o          1 J99      -0.595100
@<TRIPOS>BOND
     1     1     5 1   
     2     1    31 1   
     3     1    32 1   
     4     1    33 1   
     5     2    25 1   
     6     3    13 ar  
     7     3    14 ar  
     8     4     5 1   
     9     4     7 1   
    10     5    27 1   
    11     5    34 1   
    12     6    14 1   
    13     6    35 1   
    14     6    36 1   
    15     7     9 ar  
    16     7    14 ar  
    17     8    10 1   
    18     8    16 2   
    19     9    11 ar  
    20     9    37 1   
    21    10    17 1   
    22    10    18 1   
    23    11    13 ar  
    24    11    15 1   
    25    12    19 1   
    26    12    20 1   
    27    12    21 1   
    28    13    38 1   
    29    15    16 1   
    30    15    18 2   
    31    16    28 1   
    32    17    39 1   
    33    17    40 1   
    34    17    41 1   
    35    18    19 1   
    36    19    42 1   
    37    19    43 1   
    38    20    44 1   
    39    20    45 1   
    40    20    46 1   
    41    21    22 1   
    42    21    55 2   
    43    22    23 ar  
    44    22    27 ar  
    45    23    24 ar  
    46    23    47 1   
    47    24    25 ar  
    48    24    48 1   
    49    25    26 ar  
    50    26    27 ar  
    51    26    49 1   
    52    28    29 1   
    53    28    30 1   
    54    28    50 1   
    55    29    30 1   
    56    29    51 1   
    57    29    52 1   
    58    30    53 1   
    59    30    54 1   
@<TRIPOS>SUBSTRUCTURE
     1 J99         1 TEMP              0 ****  ****    0 ROOT
