@<TRIPOS>MOLECULE
J9A
   29    28     1     0     0
SMALL
No Charge or Current Charge


@<TRIPOS>ATOM
      1 O01          5.6560    -0.2490     1.1500 o          1 J9A      -0.751000
      2 C02          4.8720    -0.8390     0.4230 c          1 J9A       0.716000
      3 C03          3.8880    -0.0070    -0.4170 c3         1 J9A      -0.200400
      4 C04          2.5890     0.2560     0.3930 c3         1 J9A      -0.042400
      5 C05          1.4750     1.0050    -0.3900 c3         1 J9A       0.072500
      6 C06          0.1140     0.9300     0.3950 c          1 J9A       0.556100
      7 N07         -0.8570     0.1390    -0.1840 ns         1 J9A      -0.498900
      8 C08         -2.2030    -0.0740     0.3710 c3         1 J9A       0.063000
      9 C09         -3.2200    -0.5410    -0.7010 c3         1 J9A       0.005500
     10 N10         -3.3350     0.4770    -1.8160 n8         1 J9A      -0.994200
     11 C11         -4.5680    -0.9830     0.0000 c          1 J9A       0.725000
     12 O12         -5.2490    -0.1260     0.5490 o          1 J9A      -0.734500
     13 O14         -0.0930     1.5530     1.4310 o          1 J9A      -0.647100
     14 N15          1.9120     2.3960    -0.7550 n8         1 J9A      -0.979200
     15 O16          4.7920    -2.0570     0.3650 o          1 J9A      -0.751000
     16 H1           4.3190     0.9770    -0.6390 hc         1 J9A       0.022200
     17 H2           3.5800    -0.5660    -1.3080 hc         1 J9A       0.022200
     18 H3           2.1870    -0.7120     0.7190 hc         1 J9A       0.048200
     19 H4           2.8320     0.8120     1.3070 hc         1 J9A       0.048200
     20 H5           1.3200     0.4630    -1.3330 h1         1 J9A       0.049700
     21 H6          -0.6070    -0.3450    -1.0380 hn         1 J9A       0.302500
     22 H7          -2.1340    -0.8350     1.1600 h1         1 J9A       0.062200
     23 H8          -2.5600     0.8570     0.8330 h1         1 J9A       0.062200
     24 H9          -2.8000    -1.4500    -1.1540 h1         1 J9A       0.037700
     25 H10         -3.8400     1.2980    -1.4600 hn         1 J9A       0.381500
     26 H11         -2.4010     0.8430    -2.0330 hn         1 J9A       0.381500
     27 H14          1.1690     2.8560    -1.2950 hn         1 J9A       0.388500
     28 H15          1.9620     2.9590     0.1030 hn         1 J9A       0.388500
     29 O1          -4.9120    -2.1550    -0.0870 o          1 J9A      -0.734500
@<TRIPOS>BOND
     1     1     2 1   
     2     2     3 1   
     3     2    15 1   
     4     3     4 1   
     5     3    16 1   
     6     3    17 1   
     7     4     5 1   
     8     4    18 1   
     9     4    19 1   
    10     5     6 1   
    11     5    14 1   
    12     5    20 1   
    13     6     7 1   
    14     6    13 2   
    15     7     8 1   
    16     7    21 1   
    17     8     9 1   
    18     8    22 1   
    19     8    23 1   
    20     9    10 1   
    21     9    11 1   
    22     9    24 1   
    23    10    25 1   
    24    10    26 1   
    25    11    12 1   
    26    11    29 1   
    27    14    27 1   
    28    14    28 1   
@<TRIPOS>SUBSTRUCTURE
     1 J9A         1 TEMP              0 ****  ****    0 ROOT
