@<TRIPOS>MOLECULE
J9A
   29    28     1     0     0
SMALL
abcg2


@<TRIPOS>ATOM
      1 O01          4.4980    -1.0000     1.7360 o          1 J9A      -0.751000
      2 C02          4.8100    -0.6850     0.5700 c          1 J9A       0.716000
      3 C03          3.7490     0.0110    -0.3000 c3         1 J9A      -0.200400
      4 C04          2.3930     0.2180     0.3500 c3         1 J9A      -0.042400
      5 C05          1.3870     0.8940    -0.5910 c3         1 J9A       0.072500
      6 C06          0.0140     0.9030     0.0860 c          1 J9A       0.556100
      7 N07         -0.7360    -0.1900    -0.1380 ns         1 J9A      -0.498900
      8 C08         -2.0530    -0.4190     0.4120 c3         1 J9A       0.063000
      9 C09         -3.1520    -0.4020    -0.6670 c3         1 J9A       0.005500
     10 N10         -3.1690     0.7930    -1.4840 n8         1 J9A      -0.994200
     11 C11         -4.5040    -0.6260     0.0480 c          1 J9A       0.725000
     12 O12         -5.2790     0.3450     0.1280 o          1 J9A      -0.734500
     13 O14         -0.3360     1.8310     0.8040 o          1 J9A      -0.647100
     14 N15          1.8420     2.2160    -0.9660 n8         1 J9A      -0.979200
     15 O16          5.9170    -0.8780     0.0240 o          1 J9A      -0.751000
     16 H1           4.1480     0.9740    -0.6300 hc         1 J9A       0.022200
     17 H2           3.6260    -0.5730    -1.2200 hc         1 J9A       0.022200
     18 H3           1.9850    -0.7440     0.6710 hc         1 J9A       0.048200
     19 H4           2.4910     0.8250     1.2560 hc         1 J9A       0.048200
     20 H5           1.3260     0.2920    -1.5050 h1         1 J9A       0.049700
     21 H6          -0.3620    -0.8980    -0.7500 hn         1 J9A       0.302500
     22 H7          -2.0640    -1.3790     0.9310 h1         1 J9A       0.062200
     23 H8          -2.2430     0.3590     1.1510 h1         1 J9A       0.062200
     24 H9          -2.9760    -1.2600    -1.3270 h1         1 J9A       0.037700
     25 H10         -3.5170     1.5690    -0.9340 hn         1 J9A       0.381500
     26 H11         -2.2280     1.0310    -1.7740 hn         1 J9A       0.381500
     27 H14          1.2190     2.6130    -1.6590 hn         1 J9A       0.388500
     28 H15          1.7830     2.8280    -0.1600 hn         1 J9A       0.388500
     29 O1          -4.6800    -1.7650     0.5260 o          1 J9A      -0.734500
@<TRIPOS>BOND
     1     1     2 1   
     2     2     3 1   
     3     2    15 1   
     4     3     4 1   
     5     3    16 1   
     6     3    17 1   
     7     4     5 1   
     8     4    18 1   
     9     4    19 1   
    10     5     6 1   
    11     5    14 1   
    12     5    20 1   
    13     6     7 1   
    14     6    13 2   
    15     7     8 1   
    16     7    21 1   
    17     8     9 1   
    18     8    22 1   
    19     8    23 1   
    20     9    10 1   
    21     9    11 1   
    22     9    24 1   
    23    10    25 1   
    24    10    26 1   
    25    11    12 1   
    26    11    29 1   
    27    14    27 1   
    28    14    28 1   
@<TRIPOS>SUBSTRUCTURE
     1 J9A         1 TEMP              0 ****  ****    0 ROOT
