@<TRIPOS>MOLECULE
J9B
   31    33     1     0     0
SMALL
No Charge or Current Charge


@<TRIPOS>ATOM
      1 C10        -23.3700    30.5790   -23.1750 c3         1 J9B       0.135900
      2 C13        -26.3920    32.1170   -24.9680 ca         1 J9B       0.120000
      3 C15        -25.7720    33.0320   -25.8350 ca         1 J9B      -0.089000
      4 C17        -23.5940    32.3620   -24.9740 ca         1 J9B      -0.095000
      5 C02        -25.2960    26.6460   -23.7760 ca         1 J9B       0.286000
      6 C04        -23.3930    26.0570   -24.9080 ca         1 J9B       0.457900
      7 C06        -23.0520    23.7510   -25.9960 c3         1 J9B       0.222100
      8 C07        -22.8740    27.3420   -24.6420 ca         1 J9B      -0.101600
      9 C08        -23.6500    28.2190   -23.9260 ca         1 J9B       0.133500
     10 C11        -24.2130    31.4450   -24.1010 ca         1 J9B      -0.117300
     11 C12        -25.6170    31.3260   -24.1040 ca         1 J9B      -0.071000
     12 C16        -24.3720    33.1540   -25.8370 ca         1 J9B      -0.106000
     13 C18        -21.6880    29.1400   -24.4970 cc         1 J9B       0.407700
     14 N03        -24.6170    25.7040   -24.4710 nb         1 J9B      -0.283000
     15 N05        -22.6560    25.1230   -25.6290 nu         1 J9B      -0.908100
     16 N09        -22.8970    29.3520   -23.8330 na         1 J9B      -0.282300
     17 N19        -21.6390    27.8950   -25.0100 nd         1 J9B      -0.549100
     18 N20        -24.8770    27.8970   -23.4750 nb         1 J9B      -0.213000
     19 Cl14       -28.1440    31.9590   -24.9670 cl         1 J9B      -0.204000
     20 H101       -23.9540    30.3060   -22.2860 h1         1 J9B       0.076200
     21 H102       -22.5010    31.1530   -22.8280 h1         1 J9B       0.076200
     22 H151       -26.3750    33.6420   -26.5020 ha         1 J9B       0.132000
     23 H171       -22.5110    32.4610   -24.9850 ha         1 J9B       0.113000
     24 H062       -22.2540    23.2580   -26.5680 h1         1 J9B       0.048700
     25 H063       -23.2520    23.1520   -25.0970 h1         1 J9B       0.048700
     26 H061       -23.9610    23.7630   -26.6130 h1         1 J9B       0.048700
     27 H121       -26.1110    30.6190   -23.4400 ha         1 J9B       0.152000
     28 H161       -23.8890    33.8610   -26.5090 ha         1 J9B       0.121000
     29 H181       -20.9200    29.9010   -24.5720 h5         1 J9B       0.067800
     30 H051       -21.7390    25.4610   -25.9290 hn         1 J9B       0.517000
     31 Cl01       -26.8940    26.1970   -23.2040 cl         1 J9B      -0.147000
@<TRIPOS>BOND
     1     1    10 1   
     2     1    16 1   
     3     1    20 1   
     4     1    21 1   
     5     2     3 ar  
     6     2    11 ar  
     7     2    19 1   
     8     3    12 ar  
     9     3    22 1   
    10     4    10 ar  
    11     4    12 ar  
    12     4    23 1   
    13     5    14 ar  
    14     5    18 ar  
    15     5    31 1   
    16     6     8 ar  
    17     6    14 ar  
    18     6    15 1   
    19     7    15 1   
    20     7    24 1   
    21     7    25 1   
    22     7    26 1   
    23     8     9 ar  
    24     8    17 1   
    25     9    16 1   
    26     9    18 ar  
    27    10    11 ar  
    28    11    27 1   
    29    12    28 1   
    30    13    16 1   
    31    13    17 2   
    32    13    29 1   
    33    15    30 1   
@<TRIPOS>SUBSTRUCTURE
     1 J9B         1 TEMP              0 ****  ****    0 ROOT
