@<TRIPOS>MOLECULE
J9B
   31    33     1     0     0
SMALL
abcg2


@<TRIPOS>ATOM
      1 C10        -23.3790    30.5820   -23.1940 c3         1 J9B       0.135900
      2 C13        -26.2710    31.9630   -25.2060 ca         1 J9B       0.120000
      3 C15        -25.6990    33.0470   -25.8590 ca         1 J9B      -0.089000
      4 C17        -23.6110    32.5440   -24.7580 ca         1 J9B      -0.095000
      5 C02        -25.1340    26.6080   -23.6100 ca         1 J9B       0.286000
      6 C04        -23.3530    26.0260   -24.9360 ca         1 J9B       0.457900
      7 C06        -23.2040    23.7770   -25.9270 c3         1 J9B       0.222100
      8 C07        -22.8550    27.3310   -24.7220 ca         1 J9B      -0.101600
      9 C08        -23.6250    28.1680   -23.9180 ca         1 J9B       0.133500
     10 C11        -24.1980    31.4590   -24.1110 ca         1 J9B      -0.117300
     11 C12        -25.5420    31.1670   -24.3360 ca         1 J9B      -0.071000
     12 C16        -24.3590    33.3320   -25.6260 ca         1 J9B      -0.106000
     13 C18        -21.8120    29.1860   -24.6210 cc         1 J9B       0.407700
     14 N03        -24.5250    25.6950   -24.3490 nb         1 J9B      -0.283000
     15 N05        -22.7180    25.1250   -25.6890 nu         1 J9B      -0.908100
     16 N09        -22.9410    29.3540   -23.8560 na         1 J9B      -0.282300
     17 N19        -21.7200    27.9890   -25.1530 nd         1 J9B      -0.549100
     18 N20        -24.7910    27.8480   -23.3310 nb         1 J9B      -0.213000
     19 CL14       -27.9620    31.5920   -25.4850 cl         1 J9B      -0.204000
     20 H101       -23.9560    30.2870   -22.3190 h1         1 J9B       0.076200
     21 H102       -22.4890    31.1090   -22.8560 h1         1 J9B       0.076200
     22 H151       -26.2890    33.6550   -26.5310 ha         1 J9B       0.132000
     23 H171       -22.5670    32.7720   -24.5810 ha         1 J9B       0.113000
     24 H062       -22.4930    23.2720   -26.5750 h1         1 J9B       0.048700
     25 H063       -23.2940    23.2210   -24.9920 h1         1 J9B       0.048700
     26 H061       -24.1810    23.7940   -26.4130 h1         1 J9B       0.048700
     27 H121       -26.0100    30.3280   -23.8410 ha         1 J9B       0.152000
     28 H161       -23.8990    34.1760   -26.1250 ha         1 J9B       0.121000
     29 H181       -21.0990    29.9870   -24.7410 h5         1 J9B       0.067800
     30 H051       -21.8460    25.4050   -26.1080 hn         1 J9B       0.517000
     31 CL01       -26.6510    26.0760   -22.8880 cl         1 J9B      -0.147000
@<TRIPOS>BOND
     1     1    10 1   
     2     1    16 1   
     3     1    20 1   
     4     1    21 1   
     5     2     3 ar  
     6     2    11 ar  
     7     2    19 1   
     8     3    12 ar  
     9     3    22 1   
    10     4    10 ar  
    11     4    12 ar  
    12     4    23 1   
    13     5    14 ar  
    14     5    18 ar  
    15     5    31 1   
    16     6     8 ar  
    17     6    14 ar  
    18     6    15 1   
    19     7    15 1   
    20     7    24 1   
    21     7    25 1   
    22     7    26 1   
    23     8     9 ar  
    24     8    17 1   
    25     9    16 1   
    26     9    18 ar  
    27    10    11 ar  
    28    11    27 1   
    29    12    28 1   
    30    13    16 1   
    31    13    17 2   
    32    13    29 1   
    33    15    30 1   
@<TRIPOS>SUBSTRUCTURE
     1 J9B         1 TEMP              0 ****  ****    0 ROOT
