@<TRIPOS>MOLECULE
J9C
   48    51     1     0     0
SMALL
abcg2


@<TRIPOS>ATOM
      1 C10         11.7140    37.6600   -12.3320 cc         1 J9C       0.021600
      2 C11         10.8580    36.7140   -11.8150 cd         1 J9C      -0.239000
      3 C13         10.0840    37.4210   -10.8700 cd         1 J9C       0.273300
      4 C16         14.8140    35.8080   -15.7050 ca         1 J9C       0.343000
      5 C21         15.2620    33.3900   -15.9410 ca         1 J9C       0.201000
      6 C22         15.7390    36.2540   -16.6670 ca         1 J9C      -0.152000
      7 C23         16.5990    31.1920   -16.6650 ca         1 J9C       0.091900
      8 C24         15.3440    38.5250   -15.9910 ca         1 J9C       0.321300
      9 C25         16.0030    37.5920   -16.8050 ca         1 J9C      -0.095000
     10 C26          8.9990    36.8750   -10.0090 c3         1 J9C      -0.121400
     11 C27         14.6170    32.1980   -16.2730 ca         1 J9C       0.068400
     12 C28         16.6550    33.3500   -15.9890 ca         1 J9C       0.068400
     13 C1          12.0230    40.0950   -11.9090 ca         1 J9C       0.012800
     14 C2          13.4030    40.2500   -11.8350 ca         1 J9C      -0.104500
     15 C3          13.9650    41.4960   -12.0770 ca         1 J9C      -0.102500
     16 C4          13.1560    42.5860   -12.3630 ca         1 J9C      -0.109000
     17 C5          11.7760    42.4280   -12.4110 ca         1 J9C      -0.102500
     18 C6          11.2050    41.1830   -12.1930 ca         1 J9C      -0.104500
     19 N7          10.4330    38.6870   -10.8110 nc         1 J9C      -0.512800
     20 C8          14.1720    36.8140   -14.9650 ca         1 J9C       0.211500
     21 N9          11.4380    38.8280   -11.6950 na         1 J9C       0.179000
     22 C12         13.1210    36.5150   -13.9520 c          1 J9C       0.532600
     23 N14         12.6750    37.6220   -13.3150 ns         1 J9C      -0.376100
     24 N15         14.4510    38.1100   -15.1210 nb         1 J9C      -0.663000
     25 O18         12.7050    35.3870   -13.7230 o          1 J9C      -0.609100
     26 N19         15.2770    31.1080   -16.6250 nb         1 J9C      -0.149500
     27 N20         17.3140    32.2620   -16.3590 nb         1 J9C      -0.149500
     28 C29         15.6270    39.9910   -16.0880 c3         1 J9C      -0.139400
     29 H35         10.7820    35.6750   -12.0770 ha         1 J9C       0.166000
     30 H38         16.2350    35.5500   -17.3210 ha         1 J9C       0.133000
     31 H39         17.1420    30.3040   -16.9680 h5         1 J9C       0.055100
     32 H40         16.7130    37.9270   -17.5490 ha         1 J9C       0.128000
     33 H43          8.5890    37.6490    -9.3620 hc         1 J9C       0.048033
     34 H42          8.1850    36.4700   -10.6110 hc         1 J9C       0.048033
     35 H41          9.3670    36.0650    -9.3800 hc         1 J9C       0.048033
     36 H44         13.5340    32.1370   -16.2380 h4         1 J9C       0.032100
     37 H45         17.2530    34.2100   -15.7090 h4         1 J9C       0.032100
     38 H30         14.0360    39.4120   -11.5740 ha         1 J9C       0.132500
     39 H31         15.0400    41.6140   -12.0250 ha         1 J9C       0.118500
     40 H32         13.5970    43.5570   -12.5430 ha         1 J9C       0.117000
     41 H33         11.1400    43.2750   -12.6310 ha         1 J9C       0.118500
     42 H34         10.1330    41.0520   -12.2470 ha         1 J9C       0.132500
     43 H36         13.0970    38.4880   -13.6380 hn         1 J9C       0.365500
     44 H37         13.6950    34.2950   -14.9710 hn         1 J9C       0.544000
     45 H46         14.9690    40.5550   -15.4310 hc         1 J9C       0.052700
     46 H48         16.6590    40.2090   -15.8060 hc         1 J9C       0.052700
     47 H47         15.4920    40.3530   -17.1080 hc         1 J9C       0.052700
     48 N17         14.5160    34.4820   -15.5330 nu         1 J9C      -0.972000
@<TRIPOS>BOND
     1     1     2 2   
     2     1    21 1   
     3     1    23 1   
     4     2     3 1   
     5     2    29 1   
     6     3    10 1   
     7     3    19 2   
     8     4     6 ar  
     9     4    20 ar  
    10     4    48 1   
    11     5    11 ar  
    12     5    12 ar  
    13     5    48 1   
    14     6     9 ar  
    15     6    30 1   
    16     7    26 ar  
    17     7    27 ar  
    18     7    31 1   
    19     8     9 ar  
    20     8    24 ar  
    21     8    28 1   
    22     9    32 1   
    23    10    33 1   
    24    10    34 1   
    25    10    35 1   
    26    11    26 ar  
    27    11    36 1   
    28    12    27 ar  
    29    12    37 1   
    30    13    14 ar  
    31    13    18 ar  
    32    13    21 1   
    33    14    15 ar  
    34    14    38 1   
    35    15    16 ar  
    36    15    39 1   
    37    16    17 ar  
    38    16    40 1   
    39    17    18 ar  
    40    17    41 1   
    41    18    42 1   
    42    19    21 1   
    43    20    22 1   
    44    20    24 ar  
    45    22    23 1   
    46    22    25 2   
    47    23    43 1   
    48    28    45 1   
    49    28    46 1   
    50    28    47 1   
    51    44    48 1   
@<TRIPOS>SUBSTRUCTURE
     1 J9C         1 TEMP              0 ****  ****    0 ROOT
