@<TRIPOS>MOLECULE
J9C
   48    51     1     0     0
SMALL
No Charge or Current Charge


@<TRIPOS>ATOM
      1 C10         11.7380    37.7570   -12.3480 cc         1 J9C       0.021600
      2 C11         10.9580    36.7730   -11.8130 cd         1 J9C      -0.239000
      3 C13         10.1160    37.3800   -10.8490 cd         1 J9C       0.273300
      4 C16         14.9110    35.8740   -15.8130 ca         1 J9C       0.343000
      5 C21         15.2400    33.2970   -15.9730 ca         1 J9C       0.201000
      6 C22         15.8700    36.2640   -16.7680 ca         1 J9C      -0.152000
      7 C23         16.4390    30.9330   -16.5100 ca         1 J9C       0.091900
      8 C24         15.5540    38.5750   -16.0930 ca         1 J9C       0.321300
      9 C25         16.1970    37.6250   -16.9050 ca         1 J9C      -0.095000
     10 C26          9.0880    36.6840   -10.0030 c3         1 J9C      -0.121400
     11 C27         14.5050    32.0950   -16.0860 ca         1 J9C       0.068400
     12 C28         16.6430    33.1900   -16.1330 ca         1 J9C       0.068400
     13 C1          11.8460    40.1630   -11.8460 ca         1 J9C       0.012800
     14 C2          13.2300    40.3800   -11.6780 ca         1 J9C      -0.104500
     15 C3          13.7760    41.6600   -11.8750 ca         1 J9C      -0.102500
     16 C4          12.9430    42.7320   -12.2390 ca         1 J9C      -0.109000
     17 C5          11.5630    42.5240   -12.4020 ca         1 J9C      -0.102500
     18 C6          11.0160    41.2440   -12.2060 ca         1 J9C      -0.104500
     19 N7          10.3100    38.6820   -10.7330 nc         1 J9C      -0.512800
     20 C8          14.2750    36.9080   -15.0510 ca         1 J9C       0.211500
     21 N9          11.3030    38.8880   -11.6650 na         1 J9C       0.179000
     22 C12         13.1730    36.5720   -14.0420 c          1 J9C       0.532600
     23 N14         12.7120    37.6720   -13.3390 ns         1 J9C      -0.376100
     24 N15         14.6080    38.2360   -15.1920 nb         1 J9C      -0.663000
     25 O18         12.7190    35.4430   -13.8680 o          1 J9C      -0.609100
     26 N19         15.0980    30.9130   -16.3590 nb         1 J9C      -0.149500
     27 N20         17.2440    32.0120   -16.4050 nb         1 J9C      -0.149500
     28 C29         15.8720    40.0530   -16.2050 c3         1 J9C      -0.139400
     29 H35         10.9670    35.7210   -12.0690 ha         1 J9C       0.166000
     30 H38         16.3450    35.5330   -17.4130 ha         1 J9C       0.133000
     31 H39         16.9210    29.9820   -16.7300 h5         1 J9C       0.055100
     32 H40         16.9360    37.9430   -17.6360 ha         1 J9C       0.128000
     33 H43          9.3150    36.7970    -8.9370 hc         1 J9C       0.048033
     34 H42          8.0880    37.0970   -10.1830 hc         1 J9C       0.048033
     35 H41          9.0530    35.6120   -10.2270 hc         1 J9C       0.048033
     36 H44         13.4240    32.0790   -15.9610 h4         1 J9C       0.032100
     37 H45         17.3020    34.0480   -16.0190 h4         1 J9C       0.032100
     38 H30         13.8810    39.5580   -11.3880 ha         1 J9C       0.132500
     39 H31         14.8440    41.8210   -11.7450 ha         1 J9C       0.118500
     40 H32         13.3670    43.7220   -12.3910 ha         1 J9C       0.117000
     41 H33         10.9180    43.3540   -12.6820 ha         1 J9C       0.118500
     42 H34          9.9470    41.0890   -12.3380 ha         1 J9C       0.132500
     43 H36         13.1820    38.5270   -13.6250 hn         1 J9C       0.365500
     44 H37         13.7220    34.3860   -15.1130 hn         1 J9C       0.544000
     45 H46         15.7660    40.5600   -15.2380 hc         1 J9C       0.052700
     46 H48         16.8990    40.2130   -16.5510 hc         1 J9C       0.052700
     47 H47         15.1960    40.5410   -16.9170 hc         1 J9C       0.052700
     48 N17         14.5860    34.5080   -15.6650 nu         1 J9C      -0.972000
@<TRIPOS>BOND
     1     1     2 2   
     2     1    21 1   
     3     1    23 1   
     4     2     3 1   
     5     2    29 1   
     6     3    10 1   
     7     3    19 2   
     8     4     6 ar  
     9     4    20 ar  
    10     4    48 1   
    11     5    11 ar  
    12     5    12 ar  
    13     5    48 1   
    14     6     9 ar  
    15     6    30 1   
    16     7    26 ar  
    17     7    27 ar  
    18     7    31 1   
    19     8     9 ar  
    20     8    24 ar  
    21     8    28 1   
    22     9    32 1   
    23    10    33 1   
    24    10    34 1   
    25    10    35 1   
    26    11    26 ar  
    27    11    36 1   
    28    12    27 ar  
    29    12    37 1   
    30    13    14 ar  
    31    13    18 ar  
    32    13    21 1   
    33    14    15 ar  
    34    14    38 1   
    35    15    16 ar  
    36    15    39 1   
    37    16    17 ar  
    38    16    40 1   
    39    17    18 ar  
    40    17    41 1   
    41    18    42 1   
    42    19    21 1   
    43    20    22 1   
    44    20    24 ar  
    45    22    23 1   
    46    22    25 2   
    47    23    43 1   
    48    28    45 1   
    49    28    46 1   
    50    28    47 1   
    51    44    48 1   
@<TRIPOS>SUBSTRUCTURE
     1 J9C         1 TEMP              0 ****  ****    0 ROOT
