@<TRIPOS>MOLECULE
J9D
   39    41     1     0     0
SMALL
No Charge or Current Charge


@<TRIPOS>ATOM
      1 C10         -0.2400     2.4930    -0.2210 ca         1 J9D       0.443900
      2 C13          1.4780     0.8750     0.2080 ca         1 J9D       0.302500
      3 C15          3.7450     1.4010     0.9730 cc         1 J9D       0.412400
      4 C17          4.7220    -0.4550     0.4170 cd         1 J9D       0.233300
      5 C21          3.4190    -0.6110     0.0130 cc         1 J9D      -0.173000
      6 C24         -5.1650    -0.1330    -0.9260 ca         1 J9D      -0.039000
      7 C03         -5.8680    -1.0810    -0.1600 ca         1 J9D      -0.057000
      8 C04         -5.1690    -1.8860     0.7590 ca         1 J9D      -0.039000
      9 C05         -3.7780    -1.7340     0.9130 ca         1 J9D      -0.165000
     10 C06         -3.0750    -0.7770     0.1640 ca         1 J9D       0.347000
     11 C08         -0.7610     0.3350     0.1790 ca         1 J9D       0.451900
     12 C12          1.1120     2.2040    -0.0840 ca         1 J9D      -0.366000
     13 C18          5.8380    -1.4550     0.2890 c3         1 J9D      -0.096700
     14 C19          6.7820    -1.1270    -0.8810 c3         1 J9D       0.162600
     15 C23         -3.7760     0.0140    -0.7660 ca         1 J9D      -0.165000
     16 N01         -8.4410    -1.3660    -0.4460 n1         1 J9D      -0.460000
     17 N07         -1.6930    -0.6750     0.3430 nu         1 J9D      -0.926900
     18 N09         -1.1920     1.5740    -0.0900 nb         1 J9D      -0.322000
     19 N11         -0.6610     3.7450    -0.5000 nv         1 J9D      -1.074900
     20 N14          2.8330     0.5850     0.3510 na         1 J9D      -0.194000
     21 N16          4.9200     0.7820     1.0120 nd         1 J9D      -0.662000
     22 N22          0.5100    -0.0560     0.3380 nb         1 J9D      -0.313000
     23 O20          7.8040    -2.1260    -0.9710 oh         1 J9D      -0.666000
     24 H1           3.5070     2.3820     1.3660 h5         1 J9D       0.057100
     25 H2           2.9030    -1.4350    -0.4650 h4         1 J9D       0.177000
     26 H3          -5.6920     0.4880    -1.6500 ha         1 J9D       0.125000
     27 H4          -5.6980    -2.6280     1.3550 ha         1 J9D       0.125000
     28 H5          -3.2510    -2.3600     1.6270 ha         1 J9D       0.135000
     29 H6           1.8560     2.9830    -0.2140 ha         1 J9D       0.140000
     30 H7           6.4150    -1.4890     1.2200 hc         1 J9D       0.061700
     31 H8           5.4190    -2.4570     0.1420 hc         1 J9D       0.061700
     32 H9           6.2020    -1.0900    -1.8130 h1         1 J9D       0.025200
     33 H10          7.2290    -0.1370    -0.7200 h1         1 J9D       0.025200
     34 H11         -3.2500     0.7330    -1.3850 ha         1 J9D       0.135000
     35 H12         -1.2740    -1.5050     0.7580 hn         1 J9D       0.515000
     36 H13         -1.6490     3.9510    -0.3740 hn         1 J9D       0.504000
     37 H14         -0.0170     4.5200    -0.3630 hn         1 J9D       0.504000
     38 H15          8.3850    -1.8740    -1.7230 ho         1 J9D       0.442000
     39 C02         -7.2870    -1.2340    -0.3210 cg         1 J9D       0.330000
@<TRIPOS>BOND
     1     1    12 ar  
     2     1    18 ar  
     3     1    19 1   
     4     2    12 ar  
     5     2    20 1   
     6     2    22 ar  
     7     3    20 1   
     8     3    21 2   
     9     3    24 1   
    10     4     5 2   
    11     4    13 1   
    12     4    21 1   
    13     5    20 1   
    14     5    25 1   
    15     6     7 ar  
    16     6    15 ar  
    17     6    26 1   
    18     7     8 ar  
    19     7    39 1   
    20     8     9 ar  
    21     8    27 1   
    22     9    10 ar  
    23     9    28 1   
    24    10    15 ar  
    25    10    17 1   
    26    11    17 1   
    27    11    18 ar  
    28    11    22 ar  
    29    12    29 1   
    30    13    14 1   
    31    13    30 1   
    32    13    31 1   
    33    14    23 1   
    34    14    32 1   
    35    14    33 1   
    36    15    34 1   
    37    16    39 3   
    38    17    35 1   
    39    19    36 1   
    40    19    37 1   
    41    23    38 1   
@<TRIPOS>SUBSTRUCTURE
     1 J9D         1 TEMP              0 ****  ****    0 ROOT
