@<TRIPOS>MOLECULE
J9D
   39    41     1     0     0
SMALL
bcc


@<TRIPOS>ATOM
      1 C10         -0.3180     2.6480    -0.1900 ca         1 J9D       0.772200
      2 C13          1.4410     1.1180     0.1340 ca         1 J9D       0.630800
      3 C15          3.8530     1.5950     0.4250 cc         1 J9D       0.412400
      4 C17          4.6310    -0.3960     0.4510 cd         1 J9D       0.298600
      5 C21          3.2860    -0.5230     0.2950 cc         1 J9D      -0.205600
      6 C24         -5.1360     0.0670    -0.3830 ca         1 J9D      -0.057000
      7 C03         -5.6710    -1.1910    -0.1120 ca         1 J9D      -0.057000
      8 C04         -4.8150    -2.2350     0.2440 ca         1 J9D      -0.057000
      9 C05         -3.4590    -2.0140     0.3250 ca         1 J9D      -0.183000
     10 C06         -2.9120    -0.7490     0.0560 ca         1 J9D       0.208600
     11 C08         -0.7000     0.4330     0.0670 ca         1 J9D       0.977900
     12 C12          1.0650     2.4270    -0.0660 ca         1 J9D      -0.514600
     13 C18          5.6620    -1.4700     0.4990 c3         1 J9D      -0.096700
     14 C19          6.5670    -1.4290    -0.7240 c3         1 J9D       0.139400
     15 C23         -3.7750     0.2940    -0.3010 ca         1 J9D      -0.183000
     16 N01         -8.2130    -1.5870    -0.2590 n1         1 J9D      -0.370800
     17 N07         -1.5420    -0.6430     0.1570 nu         1 J9D      -0.733300
     18 N09         -1.1960     1.6400    -0.1220 nb         1 J9D      -0.848000
     19 N11         -0.8100     3.8720    -0.3910 nv         1 J9D      -0.964500
     20 N14          2.7860     0.7610     0.2750 na         1 J9D      -0.244700
     21 N16          4.9670     0.9360     0.5340 nd         1 J9D      -0.662000
     22 N22          0.5850     0.1100     0.2010 nb         1 J9D      -0.839000
     23 O20          7.5200    -2.4620    -0.6130 oh         1 J9D      -0.603800
     24 H1           3.7550     2.6690     0.4630 h5         1 J9D       0.057100
     25 H2           2.6520    -1.3860     0.1930 h4         1 J9D       0.195000
     26 H3          -5.7890     0.8830    -0.6620 ha         1 J9D       0.143000
     27 H4          -5.2100    -3.2180     0.4600 ha         1 J9D       0.143000
     28 H5          -2.8060    -2.8320     0.6030 ha         1 J9D       0.153000
     29 H6           1.7640     3.2470    -0.1370 ha         1 J9D       0.158000
     30 H7           6.2710    -1.3600     1.4010 hc         1 J9D       0.061700
     31 H8           5.1700    -2.4440     0.5590 hc         1 J9D       0.061700
     32 H9           5.9530    -1.5390    -1.6270 h1         1 J9D       0.025200
     33 H10          7.0460    -0.4430    -0.7820 h1         1 J9D       0.025200
     34 H11         -3.3880     1.2760    -0.5130 ha         1 J9D       0.153000
     35 H12         -1.0540    -1.5040     0.3560 hn         1 J9D       0.459800
     36 H13         -1.8040     4.0180    -0.4410 hn         1 J9D       0.448800
     37 H14         -0.2140     4.6810    -0.4130 hn         1 J9D       0.448800
     38 H15          8.0530    -2.4650    -1.4130 ho         1 J9D       0.403000
     39 C02         -7.0740    -1.4090    -0.1960 cg         1 J9D       0.240800
@<TRIPOS>BOND
     1     1    12 ar  
     2     1    18 ar  
     3     1    19 1   
     4     2    12 ar  
     5     2    20 1   
     6     2    22 ar  
     7     3    20 1   
     8     3    21 2   
     9     3    24 1   
    10     4     5 2   
    11     4    13 1   
    12     4    21 1   
    13     5    20 1   
    14     5    25 1   
    15     6     7 ar  
    16     6    15 ar  
    17     6    26 1   
    18     7     8 ar  
    19     7    39 1   
    20     8     9 ar  
    21     8    27 1   
    22     9    10 ar  
    23     9    28 1   
    24    10    15 ar  
    25    10    17 1   
    26    11    17 1   
    27    11    18 ar  
    28    11    22 ar  
    29    12    29 1   
    30    13    14 1   
    31    13    30 1   
    32    13    31 1   
    33    14    23 1   
    34    14    32 1   
    35    14    33 1   
    36    15    34 1   
    37    16    39 3   
    38    17    35 1   
    39    19    36 1   
    40    19    37 1   
    41    23    38 1   
@<TRIPOS>SUBSTRUCTURE
     1 J9D         1 TEMP              0 ****  ****    0 ROOT
