@<TRIPOS>MOLECULE
J9E
   49    52     1     0     0
SMALL
No Charge or Current Charge


@<TRIPOS>ATOM
      1 C02         -0.5190    -1.2830    -0.2900 c          1 J9E       0.633300
      2 C04          1.8950    -0.6630    -0.7200 c6         1 J9E       0.108700
      3 C05          2.5800     0.4040    -1.6090 c6         1 J9E      -0.087900
      4 C06          4.1060     0.1450    -1.7280 c6         1 J9E      -0.064900
      5 C07          4.8340     0.1000    -0.3440 c6         1 J9E      -0.043000
      6 C08          4.8450     1.5300     0.3090 c6         1 J9E      -0.065900
      7 C09          5.7110     1.6110     1.5940 c6         1 J9E      -0.072900
      8 C10          7.1610     1.1460     1.3240 c6         1 J9E      -0.074400
      9 C11          7.1920    -0.2680     0.6980 c6         1 J9E      -0.072900
     10 C12          6.3190    -0.3330    -0.5830 c6         1 J9E      -0.065900
     11 C13          4.0990    -0.9570     0.5540 c6         1 J9E      -0.064900
     12 C14          2.5730    -0.7030     0.6730 c6         1 J9E      -0.087900
     13 C15         -1.8810    -0.6960    -0.1970 cc         1 J9E      -0.157300
     14 C16         -3.0240    -1.4350     0.0940 cd         1 J9E      -0.126200
     15 C17         -4.1880    -0.5840     0.1130 ca         1 J9E      -0.181800
     16 C18         -5.5420    -0.8460     0.3510 ca         1 J9E       0.264000
     17 C20         -6.4470     0.2300     0.2940 ca         1 J9E      -0.235000
     18 C21         -5.9730     1.5280     0.0020 ca         1 J9E       0.227000
     19 C23         -4.6030     1.7640    -0.2350 ca         1 J9E      -0.202000
     20 C24         -3.7310     0.6710    -0.1700 ca         1 J9E       0.007800
     21 F19         -5.9710    -2.0970     0.6290 f          1 J9E      -0.164000
     22 F22         -6.8450     2.5580    -0.0520 f          1 J9E      -0.173000
     23 N03          0.4640    -0.3670    -0.5900 ns         1 J9E      -0.505900
     24 N25         -2.3590     0.6320    -0.3590 na         1 J9E      -0.209700
     25 O01         -0.2750    -2.4700    -0.1200 o          1 J9E      -0.583100
     26 H1           2.0080    -1.6470    -1.2010 h1         1 J9E       0.079700
     27 H2           2.1320     0.3860    -2.6120 hc         1 J9E       0.044950
     28 H3           2.3940     1.4100    -1.2110 hc         1 J9E       0.044950
     29 H4           4.2600    -0.8080    -2.2550 hc         1 J9E       0.044450
     30 H5           4.5560     0.9160    -2.3680 hc         1 J9E       0.044450
     31 H6           5.2350     2.2560    -0.4180 hc         1 J9E       0.037450
     32 H7           3.8290     1.8700     0.5440 hc         1 J9E       0.037450
     33 H8           5.7210     2.6450     1.9640 hc         1 J9E       0.038950
     34 H9           5.2650     1.0070     2.3950 hc         1 J9E       0.038950
     35 H10          7.6550     1.8580     0.6490 hc         1 J9E       0.038200
     36 H11          7.7360     1.1530     2.2600 hc         1 J9E       0.038200
     37 H12          8.2280    -0.5370     0.4500 hc         1 J9E       0.038950
     38 H13          6.8530    -1.0120     1.4310 hc         1 J9E       0.038950
     39 H14          6.3550    -1.3510    -0.9950 hc         1 J9E       0.037450
     40 H15          6.7720     0.3140    -1.3480 hc         1 J9E       0.037450
     41 H16          4.2520    -1.9600     0.1320 hc         1 J9E       0.044450
     42 H17          4.5320    -0.9960     1.5610 hc         1 J9E       0.044450
     43 H18          2.3820     0.2310     1.2160 hc         1 J9E       0.044950
     44 H19          2.1220    -1.5020     1.2770 hc         1 J9E       0.044950
     45 H20         -3.0310    -2.5080     0.2810 ha         1 J9E       0.231000
     46 H21         -7.5040     0.0620     0.4740 ha         1 J9E       0.151000
     47 H22         -4.2410     2.7640    -0.4590 ha         1 J9E       0.138000
     48 H23          0.1650     0.5900    -0.7150 hn         1 J9E       0.305500
     49 H24         -1.7940     1.4450    -0.5800 hn         1 J9E       0.353000
@<TRIPOS>BOND
     1     1    13 1   
     2     1    23 1   
     3     1    25 2   
     4     2     3 1   
     5     2    12 1   
     6     2    23 1   
     7     2    26 1   
     8     3     4 1   
     9     3    27 1   
    10     3    28 1   
    11     4     5 1   
    12     4    29 1   
    13     4    30 1   
    14     5     6 1   
    15     5    10 1   
    16     5    11 1   
    17     6     7 1   
    18     6    31 1   
    19     6    32 1   
    20     7     8 1   
    21     7    33 1   
    22     7    34 1   
    23     8     9 1   
    24     8    35 1   
    25     8    36 1   
    26     9    10 1   
    27     9    37 1   
    28     9    38 1   
    29    10    39 1   
    30    10    40 1   
    31    11    12 1   
    32    11    41 1   
    33    11    42 1   
    34    12    43 1   
    35    12    44 1   
    36    13    14 2   
    37    13    24 1   
    38    14    15 1   
    39    14    45 1   
    40    15    16 ar  
    41    15    20 ar  
    42    16    17 ar  
    43    16    21 1   
    44    17    18 ar  
    45    17    46 1   
    46    18    19 ar  
    47    18    22 1   
    48    19    20 ar  
    49    19    47 1   
    50    20    24 1   
    51    23    48 1   
    52    24    49 1   
@<TRIPOS>SUBSTRUCTURE
     1 J9E         1 TEMP              0 ****  ****    0 ROOT
