@<TRIPOS>MOLECULE
J9E
   49    52     1     0     0
SMALL
abcg2


@<TRIPOS>ATOM
      1 C02         -0.4900    -1.1580    -0.2490 c          1 J9E       0.633300
      2 C04          1.8460    -0.4580    -0.5520 c6         1 J9E       0.108700
      3 C05          2.4910     0.6370    -1.3920 c6         1 J9E      -0.087900
      4 C06          3.9730     0.3460    -1.6000 c6         1 J9E      -0.064900
      5 C07          4.7690     0.1550    -0.3010 c6         1 J9E      -0.043000
      6 C08          4.8960     1.4970     0.4410 c6         1 J9E      -0.065900
      7 C09          5.8590     1.4540     1.6240 c6         1 J9E      -0.072900
      8 C10          7.2370     0.9540     1.2070 c6         1 J9E      -0.074400
      9 C11          7.1430    -0.3940     0.5020 c6         1 J9E      -0.072900
     10 C12          6.1760    -0.3320    -0.6750 c6         1 J9E      -0.065900
     11 C13          4.0560    -0.9050     0.5530 c6         1 J9E      -0.064900
     12 C14          2.5750    -0.6180     0.7780 c6         1 J9E      -0.087900
     13 C15         -1.8990    -0.7200    -0.1560 cc         1 J9E      -0.157300
     14 C16         -2.9390    -1.4580     0.3350 cd         1 J9E      -0.126200
     15 C17         -4.1010    -0.6480     0.2120 ca         1 J9E      -0.181800
     16 C18         -5.4520    -0.8100     0.5130 ca         1 J9E       0.264000
     17 C20         -6.3690     0.1720     0.2440 ca         1 J9E      -0.235000
     18 C21         -5.9120     1.3570    -0.3470 ca         1 J9E       0.227000
     19 C23         -4.6030     1.6030    -0.6700 ca         1 J9E      -0.202000
     20 C24         -3.7040     0.5740    -0.3730 ca         1 J9E       0.007800
     21 F19         -5.8500    -1.9580     1.0710 f          1 J9E      -0.164000
     22 F22         -6.8290     2.3020    -0.6060 f          1 J9E      -0.173000
     23 N03          0.4290    -0.1870    -0.3850 ns         1 J9E      -0.505900
     24 N25         -2.3640     0.5070    -0.5710 na         1 J9E      -0.209700
     25 O01         -0.2200    -2.3520    -0.2180 o          1 J9E      -0.583100
     26 H1           1.9230    -1.4000    -1.1030 h1         1 J9E       0.079700
     27 H2           1.9890     0.7040    -2.3600 hc         1 J9E       0.044950
     28 H3           2.3550     1.6090    -0.9040 hc         1 J9E       0.044950
     29 H4           4.0650    -0.5640    -2.2060 hc         1 J9E       0.044450
     30 H5           4.4270     1.1490    -2.1890 hc         1 J9E       0.044450
     31 H6           5.2560     2.2460    -0.2740 hc         1 J9E       0.037450
     32 H7           3.9180     1.8500     0.7800 hc         1 J9E       0.037450
     33 H8           5.9370     2.4510     2.0640 hc         1 J9E       0.038950
     34 H9           5.4580     0.8090     2.4130 hc         1 J9E       0.038950
     35 H10          7.6920     1.6830     0.5270 hc         1 J9E       0.038200
     36 H11          7.8970     0.8880     2.0750 hc         1 J9E       0.038200
     37 H12          8.1300    -0.7040     0.1490 hc         1 J9E       0.038950
     38 H13          6.8250    -1.1610     1.2160 hc         1 J9E       0.038950
     39 H14          6.1020    -1.3130    -1.1550 hc         1 J9E       0.037450
     40 H15          6.5890     0.3480    -1.4310 hc         1 J9E       0.037450
     41 H16          4.1500    -1.8740     0.0470 hc         1 J9E       0.044450
     42 H17          4.5490    -1.0300     1.5200 hc         1 J9E       0.044450
     43 H18          2.4450     0.2880     1.3780 hc         1 J9E       0.044950
     44 H19          2.1240    -1.4340     1.3480 hc         1 J9E       0.044950
     45 H20         -2.8720    -2.4510     0.7470 ha         1 J9E       0.231000
     46 H21         -7.4180     0.0400     0.4750 ha         1 J9E       0.151000
     47 H22         -4.2920     2.5340    -1.1250 ha         1 J9E       0.138000
     48 H23          0.1690     0.7690    -0.1980 hn         1 J9E       0.305500
     49 H24         -1.8320     1.2020    -1.0690 hn         1 J9E       0.353000
@<TRIPOS>BOND
     1     1    13 1   
     2     1    23 1   
     3     1    25 2   
     4     2     3 1   
     5     2    12 1   
     6     2    23 1   
     7     2    26 1   
     8     3     4 1   
     9     3    27 1   
    10     3    28 1   
    11     4     5 1   
    12     4    29 1   
    13     4    30 1   
    14     5     6 1   
    15     5    10 1   
    16     5    11 1   
    17     6     7 1   
    18     6    31 1   
    19     6    32 1   
    20     7     8 1   
    21     7    33 1   
    22     7    34 1   
    23     8     9 1   
    24     8    35 1   
    25     8    36 1   
    26     9    10 1   
    27     9    37 1   
    28     9    38 1   
    29    10    39 1   
    30    10    40 1   
    31    11    12 1   
    32    11    41 1   
    33    11    42 1   
    34    12    43 1   
    35    12    44 1   
    36    13    14 2   
    37    13    24 1   
    38    14    15 1   
    39    14    45 1   
    40    15    16 ar  
    41    15    20 ar  
    42    16    17 ar  
    43    16    21 1   
    44    17    18 ar  
    45    17    46 1   
    46    18    19 ar  
    47    18    22 1   
    48    19    20 ar  
    49    19    47 1   
    50    20    24 1   
    51    23    48 1   
    52    24    49 1   
@<TRIPOS>SUBSTRUCTURE
     1 J9E         1 TEMP              0 ****  ****    0 ROOT
