@<TRIPOS>MOLECULE
J9F
   23    24     1     0     0
SMALL
abcg2


@<TRIPOS>ATOM
      1 O01         92.8090   105.3060    89.1240 oh         1 J9F      -0.564100
      2 C02         93.8020   104.5700    89.6130 ca         1 J9F       0.213100
      3 C03         94.5170   103.7470    88.7390 ca         1 J9F      -0.188000
      4 C04         95.5550   102.9630    89.2050 ca         1 J9F      -0.070000
      5 C05         95.9100   102.9750    90.5520 ca         1 J9F      -0.186000
      6 C06         95.2100   103.7870    91.4220 ca         1 J9F      -0.041000
      7 C07         94.1550   104.5900    90.9800 ca         1 J9F      -0.219900
      8 C08         93.4010   105.4360    91.8970 ce         1 J9F       0.511800
      9 N09         92.4720   106.2150    91.5060 n2         1 J9F      -0.584900
     10 C10         91.7410   106.8360    92.5860 c5         1 J9F      -0.039500
     11 C11         90.4060   106.0720    92.8900 c          1 J9F       0.736000
     12 O13         90.0430   105.2080    92.0780 o          1 J9F      -0.695500
     13 C14         92.6680   106.8930    93.8040 c5         1 J9F       0.073600
     14 S15         93.7080   105.4120    93.6410 ss         1 J9F      -0.431200
     15 H9          92.4150   105.8240    89.8820 ho         1 J9F       0.542000
     16 H2          94.2450   103.7350    87.6910 ha         1 J9F       0.115000
     17 H3          96.0960   102.3340    88.5090 ha         1 J9F       0.094000
     18 H4          96.7230   102.3610    90.9130 ha         1 J9F       0.101000
     19 H5          95.4920   103.8040    92.4680 ha         1 J9F       0.117000
     20 H6          91.4670   107.8550    92.2960 h1         1 J9F       0.073700
     21 H7          93.3120   107.7730    93.7990 h1         1 J9F       0.069700
     22 H8          92.1150   106.8640    94.7390 h1         1 J9F       0.069700
     23 O1          89.8260   106.4520    93.9220 o          1 J9F      -0.695500
@<TRIPOS>BOND
     1     1     2 1   
     2     1    15 1   
     3     2     3 ar  
     4     2     7 ar  
     5     3     4 ar  
     6     3    16 1   
     7     4     5 ar  
     8     4    17 1   
     9     5     6 ar  
    10     5    18 1   
    11     6     7 ar  
    12     6    19 1   
    13     7     8 1   
    14     8     9 2   
    15     8    14 1   
    16     9    10 1   
    17    10    11 1   
    18    10    13 1   
    19    10    20 1   
    20    11    12 1   
    21    11    23 1   
    22    13    14 1   
    23    13    21 1   
    24    13    22 1   
@<TRIPOS>SUBSTRUCTURE
     1 J9F         1 TEMP              0 ****  ****    0 ROOT
