@<TRIPOS>MOLECULE
J9F
   23    24     1     0     0
SMALL
No Charge or Current Charge


@<TRIPOS>ATOM
      1 O01         93.0820   105.5400    88.9570 oh         1 J9F      -0.564100
      2 C02         93.9620   104.6700    89.5220 ca         1 J9F       0.213100
      3 C03         94.8190   103.9550    88.6720 ca         1 J9F      -0.188000
      4 C04         95.7420   103.0400    89.1970 ca         1 J9F      -0.070000
      5 C05         95.8020   102.8400    90.5830 ca         1 J9F      -0.186000
      6 C06         94.9490   103.5540    91.4410 ca         1 J9F      -0.041000
      7 C07         94.0190   104.4910    90.9290 ca         1 J9F      -0.219900
      8 C08         93.1120   105.2330    91.8730 ce         1 J9F       0.511800
      9 N09         92.1660   106.0090    91.4280 n2         1 J9F      -0.584900
     10 C10         91.5650   106.7760    92.5830 c5         1 J9F      -0.039500
     11 C11         90.4050   106.0440    93.3600 c          1 J9F       0.736000
     12 O13         90.0750   104.9060    93.0470 o          1 J9F      -0.695500
     13 C14         92.7410   107.0310    93.5570 c5         1 J9F       0.073600
     14 S15         93.6020   105.4050    93.5850 ss         1 J9F      -0.431200
     15 H9          92.5500   105.9040    89.7130 ho         1 J9F       0.542000
     16 H2          94.7650   104.1090    87.5970 ha         1 J9F       0.115000
     17 H3          96.4040   102.4870    88.5340 ha         1 J9F       0.094000
     18 H4          96.5110   102.1260    90.9960 ha         1 J9F       0.101000
     19 H5          95.0170   103.3610    92.5090 ha         1 J9F       0.117000
     20 H6          91.1510   107.7280    92.2270 h1         1 J9F       0.073700
     21 H7          93.4220   107.7960    93.1590 h1         1 J9F       0.069700
     22 H8          92.4210   107.3370    94.5620 h1         1 J9F       0.069700
     23 O1          89.8040   106.6690    94.2240 o          1 J9F      -0.695500
@<TRIPOS>BOND
     1     1     2 1   
     2     1    15 1   
     3     2     3 ar  
     4     2     7 ar  
     5     3     4 ar  
     6     3    16 1   
     7     4     5 ar  
     8     4    17 1   
     9     5     6 ar  
    10     5    18 1   
    11     6     7 ar  
    12     6    19 1   
    13     7     8 1   
    14     8     9 2   
    15     8    14 1   
    16     9    10 1   
    17    10    11 1   
    18    10    13 1   
    19    10    20 1   
    20    11    12 1   
    21    11    23 1   
    22    13    14 1   
    23    13    21 1   
    24    13    22 1   
@<TRIPOS>SUBSTRUCTURE
     1 J9F         1 TEMP              0 ****  ****    0 ROOT
