@<TRIPOS>MOLECULE
J9G
   40    43     1     0     0
SMALL
No Charge or Current Charge


@<TRIPOS>ATOM
      1 C4           3.5680     1.0050     0.5130 ca         1 J9G      -0.119000
      2 C5           3.7110    -0.0400    -0.4230 ca         1 J9G       0.250000
      3 C7           1.2200    -0.7300    -0.6630 ca         1 J9G       0.244000
      4 C8           0.1880    -0.9190    -1.6500 ca         1 J9G       0.285900
      5 C10         -1.4400    -0.9980    -0.0640 ca         1 J9G       0.398900
      6 C13         -4.6650     0.0300    -0.5010 ca         1 J9G      -0.125300
      7 C15         -6.2280     1.8020     0.1100 ca         1 J9G      -0.118000
      8 C17         -4.9800     1.9520    -1.9730 ca         1 J9G      -0.118000
      9 C24          0.8440    -0.7050     0.7030 ca         1 J9G      -0.114000
     10 C14         -5.6040     0.5760     0.3970 ca         1 J9G      -0.085500
     11 C16         -5.9170     2.4910    -1.0750 ca         1 J9G      -0.100000
     12 C18         -4.3550     0.7260    -1.6860 ca         1 J9G      -0.085500
     13 C19         -2.6040    -1.0440     1.9300 c          1 J9G       0.601000
     14 C2           5.9870     1.1390     0.7700 ca         1 J9G       0.166000
     15 C23         -0.5220    -0.8400     0.9610 ca         1 J9G      -0.008400
     16 C25          5.0200    -0.4670    -0.7710 ca         1 J9G       0.149000
     17 C27          6.1500     0.1150    -0.1730 ca         1 J9G      -0.164000
     18 C3           4.7020     1.5890     1.1110 ca         1 J9G      -0.135000
     19 F1           7.0710     1.7020     1.3440 f          1 J9G      -0.172000
     20 F26          5.1990    -1.4510    -1.6850 f          1 J9G      -0.173000
     21 N11         -2.7160    -1.1250     0.5350 n          1 J9G      -0.375300
     22 N21         -1.2640    -0.8740     2.1490 ns         1 J9G      -0.500600
     23 N6           2.5790    -0.6180    -1.0360 nu         1 J9G      -0.968000
     24 N9          -1.1430    -1.0530    -1.3730 nb         1 J9G      -0.642000
     25 O20         -3.4870    -1.1140     2.7660 o          1 J9G      -0.550000
     26 H1           2.5830     1.3840     0.7660 ha         1 J9G       0.130000
     27 H2           0.4510    -0.9590    -2.7070 h4         1 J9G       0.025100
     28 H3          -6.9520     2.2200     0.8060 ha         1 J9G       0.113500
     29 H4          -4.7360     2.4850    -2.8890 ha         1 J9G       0.113500
     30 H5           1.5680    -0.6100     1.5050 ha         1 J9G       0.140000
     31 H6          -4.6560    -1.9220     0.4130 h1         1 J9G       0.074700
     32 H7          -3.7910    -1.8380    -1.1230 h1         1 J9G       0.074700
     33 H8          -5.8480     0.0520     1.3190 ha         1 J9G       0.123500
     34 H9          -6.4010     3.4400    -1.2970 ha         1 J9G       0.112000
     35 H10         -3.6270     0.3170    -2.3840 ha         1 J9G       0.123500
     36 H11          7.1460    -0.2250    -0.4420 ha         1 J9G       0.151000
     37 H12          4.5860     2.3940     1.8330 ha         1 J9G       0.138000
     38 H13         -0.8720    -0.7870     3.0820 hn         1 J9G       0.471000
     39 H14          2.8010    -1.0750    -1.9260 hn         1 J9G       0.497000
     40 C12         -3.9830    -1.2950    -0.1880 c3         1 J9G       0.172300
@<TRIPOS>BOND
     1     1     2 ar  
     2     1    18 ar  
     3     1    26 1   
     4     2    16 ar  
     5     2    23 1   
     6     3     4 ar  
     7     3     9 ar  
     8     3    23 1   
     9     4    24 ar  
    10     4    27 1   
    11     5    15 ar  
    12     5    21 1   
    13     5    24 ar  
    14     6    10 ar  
    15     6    12 ar  
    16     6    40 1   
    17     7    10 ar  
    18     7    11 ar  
    19     7    28 1   
    20     8    11 ar  
    21     8    12 ar  
    22     8    29 1   
    23     9    15 ar  
    24     9    30 1   
    25    10    33 1   
    26    11    34 1   
    27    12    35 1   
    28    13    21 1   
    29    13    22 1   
    30    13    25 2   
    31    14    17 ar  
    32    14    18 ar  
    33    14    19 1   
    34    15    22 1   
    35    16    17 ar  
    36    16    20 1   
    37    17    36 1   
    38    18    37 1   
    39    21    40 1   
    40    22    38 1   
    41    23    39 1   
    42    31    40 1   
    43    32    40 1   
@<TRIPOS>SUBSTRUCTURE
     1 J9G         1 TEMP              0 ****  ****    0 ROOT
