@<TRIPOS>MOLECULE
J9G
   40    43     1     0     0
SMALL
abcg2


@<TRIPOS>ATOM
      1 C4           3.1370     0.9990     0.2690 ca         1 J9G      -0.119000
      2 C5           3.4640    -0.1510    -0.4480 ca         1 J9G       0.250000
      3 C7           1.1880    -1.0600    -0.5920 ca         1 J9G       0.244000
      4 C8           0.1980    -1.1260    -1.5690 ca         1 J9G       0.285900
      5 C10         -1.4350    -1.2110    -0.0410 ca         1 J9G       0.398900
      6 C13         -4.4470     0.1110    -0.4840 ca         1 J9G      -0.125300
      7 C15         -5.7960     1.9990     0.1800 ca         1 J9G      -0.118000
      8 C17         -4.4220     2.1440    -1.7860 ca         1 J9G      -0.118000
      9 C24          0.8180    -1.0750     0.7630 ca         1 J9G      -0.114000
     10 C14         -5.3560     0.6990     0.3900 ca         1 J9G      -0.085500
     11 C16         -5.3290     2.7250    -0.9080 ca         1 J9G      -0.100000
     12 C18         -3.9860     0.8430    -1.5750 ca         1 J9G      -0.085500
     13 C19         -2.6150    -1.2480     1.8790 c          1 J9G       0.601000
     14 C2           5.4420     1.5450     0.5440 ca         1 J9G       0.166000
     15 C23         -0.5270    -1.1340     1.0250 ca         1 J9G      -0.008400
     16 C25          4.8230    -0.4000    -0.6470 ca         1 J9G       0.149000
     17 C27          5.8200     0.4270    -0.1760 ca         1 J9G      -0.164000
     18 C3           4.1160     1.8420     0.7770 ca         1 J9G      -0.135000
     19 F1           6.3980     2.3580     1.0210 f          1 J9G      -0.172000
     20 F26          5.1680    -1.4940    -1.3430 f          1 J9G      -0.173000
     21 N11         -2.6980    -1.2920     0.5030 n          1 J9G      -0.375300
     22 N21         -1.2750    -1.1630     2.1750 ns         1 J9G      -0.500600
     23 N6           2.5310    -1.0440    -0.9630 nu         1 J9G      -0.968000
     24 N9          -1.1090    -1.2170    -1.3030 nb         1 J9G      -0.642000
     25 O20         -3.5420    -1.2810     2.6640 o          1 J9G      -0.550000
     26 H1           2.0990     1.2520     0.4350 ha         1 J9G       0.130000
     27 H2           0.4780    -1.1160    -2.6170 h4         1 J9G       0.025100
     28 H3          -6.5060     2.4460     0.8650 ha         1 J9G       0.113500
     29 H4          -4.0570     2.7030    -2.6380 ha         1 J9G       0.113500
     30 H5           1.5550    -1.0520     1.5550 ha         1 J9G       0.140000
     31 H6          -4.6720    -1.8670     0.3290 h1         1 J9G       0.074700
     32 H7          -3.7680    -1.8120    -1.1750 h1         1 J9G       0.074700
     33 H8          -5.7230     0.1370     1.2400 ha         1 J9G       0.123500
     34 H9          -5.6710     3.7380    -1.0740 ha         1 J9G       0.112000
     35 H10         -3.2790     0.3920    -2.2620 ha         1 J9G       0.123500
     36 H11          6.8610     0.1940    -0.3580 ha         1 J9G       0.151000
     37 H12          3.8380     2.7280     1.3320 ha         1 J9G       0.138000
     38 H13         -0.9210    -1.1260     3.1190 hn         1 J9G       0.471000
     39 H14          2.7250    -1.3930    -1.8880 hn         1 J9G       0.497000
     40 C12         -3.9430    -1.2880    -0.2360 c3         1 J9G       0.172300
@<TRIPOS>BOND
     1     1     2 ar  
     2     1    18 ar  
     3     1    26 1   
     4     2    16 ar  
     5     2    23 1   
     6     3     4 ar  
     7     3     9 ar  
     8     3    23 1   
     9     4    24 ar  
    10     4    27 1   
    11     5    15 ar  
    12     5    21 1   
    13     5    24 ar  
    14     6    10 ar  
    15     6    12 ar  
    16     6    40 1   
    17     7    10 ar  
    18     7    11 ar  
    19     7    28 1   
    20     8    11 ar  
    21     8    12 ar  
    22     8    29 1   
    23     9    15 ar  
    24     9    30 1   
    25    10    33 1   
    26    11    34 1   
    27    12    35 1   
    28    13    21 1   
    29    13    22 1   
    30    13    25 2   
    31    14    17 ar  
    32    14    18 ar  
    33    14    19 1   
    34    15    22 1   
    35    16    17 ar  
    36    16    20 1   
    37    17    36 1   
    38    18    37 1   
    39    21    40 1   
    40    22    38 1   
    41    23    39 1   
    42    31    40 1   
    43    32    40 1   
@<TRIPOS>SUBSTRUCTURE
     1 J9G         1 TEMP              0 ****  ****    0 ROOT
