@<TRIPOS>MOLECULE
J9I
   63    67     1     0     0
SMALL
abcg2


@<TRIPOS>ATOM
      1 N1         -11.8110   -27.9200    10.1940 nb         1 J9I      -0.175000
      2 N3         -11.6990   -30.6560     9.7530 nc         1 J9I      -0.687000
      3 C4          -9.4670   -26.5580    10.5880 ca         1 J9I       0.386900
      4 C5         -10.5500   -29.9390     9.9580 cc         1 J9I       0.267000
      5 C6         -11.4360   -31.9070     9.5520 cd         1 J9I       0.706300
      6 C7          -9.3960   -30.6520     9.9230 cd         1 J9I      -0.237000
      7 C8         -12.1640   -34.1900     9.0170 ca         1 J9I       0.287000
      8 C10        -11.2040   -36.3090     9.6990 cp         1 J9I      -0.013000
      9 C13        -12.6790   -34.7620     7.8480 ca         1 J9I      -0.097300
     10 C15        -10.4260   -37.1080    10.6660 cp         1 J9I      -0.038000
     11 C17         -8.5940   -37.3070    12.2360 ca         1 J9I      -0.099500
     12 C20        -10.7500   -38.4380    10.9260 ca         1 J9I      -0.101000
     13 C22         -5.9470   -39.9790    14.3260 c6         1 J9I       0.163300
     14 C24         -4.8270   -39.8530    11.7430 c6         1 J9I       0.163300
     15 C26         -2.6570   -40.3860    12.6020 c3         1 J9I       0.153100
     16 C1         -10.6150   -28.4860    10.1940 ca         1 J9I       0.148000
     17 C2         -11.8210   -26.5980    10.3980 ca         1 J9I       0.133900
     18 C3         -10.6900   -25.8540    10.6000 ca         1 J9I      -0.296000
     19 N2          -9.4510   -27.8740    10.3800 nb         1 J9I      -0.272000
     20 S1          -9.7370   -32.3100     9.6090 ss         1 J9I      -0.087400
     21 N4         -12.3890   -32.8280     9.2710 nu         1 J9I      -0.948900
     22 C9         -11.4580   -34.9590     9.9350 ca         1 J9I      -0.120000
     23 C11        -11.7160   -36.8800     8.5360 ca         1 J9I      -0.109000
     24 C12        -12.4480   -36.1170     7.6410 ca         1 J9I      -0.093000
     25 C14        -13.4380   -33.9400     6.8510 c3         1 J9I      -0.049800
     26 C16         -9.3340   -36.5550    11.3410 ca         1 J9I      -0.101000
     27 C18         -8.9180   -38.6380    12.4910 ca         1 J9I      -0.080300
     28 C19        -10.0030   -39.1900    11.8220 ca         1 J9I      -0.099500
     29 N5          -6.6950   -39.3760    13.2390 n3         1 J9I      -0.718600
     30 C23         -4.4550   -39.8460    14.0880 c6         1 J9I       0.163300
     31 N6          -4.0810   -40.4560    12.8290 n3         1 J9I      -0.717600
     32 C25         -6.3200   -39.9860    11.9770 c6         1 J9I       0.163300
     33 N7          -8.2940   -25.9440    10.8070 nv         1 J9I      -1.077900
     34 H1          -8.3860   -30.3070    10.0710 h4         1 J9I       0.173000
     35 H2          -7.7420   -36.8600    12.7340 ha         1 J9I       0.119500
     36 H3         -11.6000   -38.8950    10.4340 ha         1 J9I       0.115500
     37 H4          -8.3110   -39.0690    14.4860 h1         1 J9I       0.038700
     38 H5          -8.4860   -40.4910    13.4690 h1         1 J9I       0.038700
     39 H6          -6.2080   -39.4770    15.2610 h1         1 J9I       0.039450
     40 H7          -6.1990   -41.0460    14.4490 h1         1 J9I       0.039450
     41 H8          -4.5670   -40.3540    10.8070 h1         1 J9I       0.037450
     42 H9          -4.5750   -38.7850    11.6190 h1         1 J9I       0.037450
     43 H10         -2.1230   -40.8860    13.4120 h1         1 J9I       0.030033
     44 H11         -2.4010   -40.8930    11.6700 h1         1 J9I       0.030033
     45 H12         -2.2780   -39.3540    12.5360 h1         1 J9I       0.030033
     46 H13        -12.7930   -26.1180    10.3960 h4         1 J9I       0.020100
     47 H14        -10.7310   -24.7860    10.7620 ha         1 J9I       0.128000
     48 H15        -13.2900   -32.4400     9.0310 hn         1 J9I       0.514000
     49 H16        -11.1370   -34.5090    10.8670 ha         1 J9I       0.132000
     50 H17        -11.5290   -37.9230     8.3140 ha         1 J9I       0.118000
     51 H18        -12.8300   -36.5820     6.7390 ha         1 J9I       0.115000
     52 H19        -14.3780   -33.5630     7.2620 hc         1 J9I       0.046367
     53 H20        -12.8600   -33.0720     6.5260 hc         1 J9I       0.046367
     54 H21        -13.6840   -34.5280     5.9700 hc         1 J9I       0.046367
     55 H22         -9.0450   -35.5280    11.1480 ha         1 J9I       0.115500
     56 H23        -10.2730   -40.2240    12.0010 ha         1 J9I       0.119500
     57 H25         -3.9190   -40.3420    14.9010 h1         1 J9I       0.037450
     58 H26         -4.1760   -38.7770    14.1220 h1         1 J9I       0.037450
     59 H28         -6.8500   -39.4920    11.1610 h1         1 J9I       0.039450
     60 H29         -6.6010   -41.0530    11.9480 h1         1 J9I       0.039450
     61 H30         -7.4400   -26.4510    10.6500 hn         1 J9I       0.491500
     62 H31         -8.2370   -24.9400    10.8120 hn         1 J9I       0.491500
     63 C21         -8.1220   -39.4500    13.4780 c3         1 J9I       0.213100
@<TRIPOS>BOND
     1     1    16 ar  
     2     1    17 ar  
     3     2     4 1   
     4     2     5 2   
     5     3    18 ar  
     6     3    19 ar  
     7     3    33 1   
     8     4     6 2   
     9     4    16 1   
    10     5    20 1   
    11     5    21 1   
    12     6    20 1   
    13     6    34 1   
    14     7     9 ar  
    15     7    21 1   
    16     7    22 ar  
    17     8    10 1   
    18     8    22 ar  
    19     8    23 ar  
    20     9    24 ar  
    21     9    25 1   
    22    10    12 ar  
    23    10    26 ar  
    24    11    26 ar  
    25    11    27 ar  
    26    11    35 1   
    27    12    28 ar  
    28    12    36 1   
    29    13    29 1   
    30    13    30 1   
    31    13    39 1   
    32    13    40 1   
    33    14    31 1   
    34    14    32 1   
    35    14    41 1   
    36    14    42 1   
    37    15    31 1   
    38    15    43 1   
    39    15    44 1   
    40    15    45 1   
    41    16    19 ar  
    42    17    18 ar  
    43    17    46 1   
    44    18    47 1   
    45    21    48 1   
    46    22    49 1   
    47    23    24 ar  
    48    23    50 1   
    49    24    51 1   
    50    25    52 1   
    51    25    53 1   
    52    25    54 1   
    53    26    55 1   
    54    27    28 ar  
    55    27    63 1   
    56    28    56 1   
    57    29    32 1   
    58    29    63 1   
    59    30    31 1   
    60    30    57 1   
    61    30    58 1   
    62    32    59 1   
    63    32    60 1   
    64    33    61 1   
    65    33    62 1   
    66    37    63 1   
    67    38    63 1   
@<TRIPOS>SUBSTRUCTURE
     1 J9I         1 TEMP              0 ****  ****    0 ROOT
