@<TRIPOS>MOLECULE
J9I
   63    67     1     0     0
SMALL
No Charge or Current Charge


@<TRIPOS>ATOM
      1 N1         -12.2520   -27.6210     9.5560 nb         1 J9I      -0.175000
      2 N3         -11.6440   -30.4180     9.4450 nc         1 J9I      -0.687000
      3 C4         -10.4140   -25.9180    10.6570 ca         1 J9I       0.386900
      4 C5         -10.7740   -29.4980     9.9890 cc         1 J9I       0.267000
      5 C6         -11.1150   -31.6100     9.5500 cd         1 J9I       0.706300
      6 C7          -9.5810   -29.9890    10.4780 cd         1 J9I      -0.237000
      7 C8         -11.6970   -33.9850     8.8750 ca         1 J9I       0.287000
      8 C10        -10.8350   -36.1250     9.7520 cp         1 J9I      -0.013000
      9 C13        -12.3250   -34.6710     7.8080 ca         1 J9I      -0.097300
     10 C15        -10.0580   -36.8860    10.7820 cp         1 J9I      -0.038000
     11 C17         -8.1720   -37.0460    12.3510 ca         1 J9I      -0.099500
     12 C20        -10.4530   -38.1860    11.1860 ca         1 J9I      -0.101000
     13 C22         -5.6220   -40.1490    14.4050 c6         1 J9I       0.163300
     14 C24         -5.0730   -40.8690    11.6450 c6         1 J9I       0.163300
     15 C26         -2.9140   -41.9060    12.2730 c3         1 J9I       0.153100
     16 C1         -11.0620   -28.0450    10.0560 ca         1 J9I       0.148000
     17 C2         -12.5210   -26.3020     9.6140 ca         1 J9I       0.133900
     18 C3         -11.6080   -25.3940    10.1690 ca         1 J9I      -0.296000
     19 N2         -10.1300   -27.2250    10.6080 nb         1 J9I      -0.272000
     20 S1          -9.5020   -31.7280    10.2510 ss         1 J9I      -0.087400
     21 N4         -11.8330   -32.5970     8.9780 nu         1 J9I      -0.948900
     22 C9         -10.9760   -34.7180     9.8370 ca         1 J9I      -0.120000
     23 C11        -11.4570   -36.7850     8.6670 ca         1 J9I      -0.109000
     24 C12        -12.1940   -36.0700     7.7120 ca         1 J9I      -0.093000
     25 C14        -13.1340   -33.9260     6.7460 c3         1 J9I      -0.049800
     26 C16         -8.9010   -36.3320    11.3860 ca         1 J9I      -0.101000
     27 C18         -8.5780   -38.3340    12.7420 ca         1 J9I      -0.080300
     28 C19         -9.7250   -38.9010    12.1530 ca         1 J9I      -0.099500
     29 N5          -6.4430   -39.5320    13.3190 n3         1 J9I      -0.718600
     30 C23         -4.1990   -40.5680    13.9130 c6         1 J9I       0.163300
     31 N6          -4.2530   -41.4850    12.7330 n3         1 J9I      -0.717600
     32 C25         -6.4960   -40.4490    12.1360 c6         1 J9I       0.163300
     33 N7          -9.4680   -25.1230    11.2110 nv         1 J9I      -1.077900
     34 H1          -8.7620   -29.4500    10.9390 h4         1 J9I       0.173000
     35 H2          -7.2830   -36.6010    12.7940 ha         1 J9I       0.119500
     36 H3         -11.3410   -38.6420    10.7570 ha         1 J9I       0.115500
     37 H4          -7.6730   -38.4610    14.6730 h1         1 J9I       0.038700
     38 H5          -8.3620   -39.9830    14.1120 h1         1 J9I       0.038700
     39 H6          -5.5090   -39.4450    15.2430 h1         1 J9I       0.039450
     40 H7          -6.1300   -41.0410    14.8020 h1         1 J9I       0.039450
     41 H8          -5.1850   -41.5740    10.8080 h1         1 J9I       0.037450
     42 H9          -4.5640   -39.9780    11.2480 h1         1 J9I       0.037450
     43 H10         -2.3620   -42.3990    13.0850 h1         1 J9I       0.030033
     44 H11         -2.9960   -42.6170    11.4400 h1         1 J9I       0.030033
     45 H12         -2.3260   -41.0430    11.9320 h1         1 J9I       0.030033
     46 H13        -13.4780   -25.9740     9.2100 h4         1 J9I       0.020100
     47 H14        -11.8290   -24.3320    10.2140 ha         1 J9I       0.128000
     48 H15        -12.5890   -32.1890     8.4410 hn         1 J9I       0.514000
     49 H16        -10.5470   -34.2050    10.6880 ha         1 J9I       0.132000
     50 H17        -11.3620   -37.8620     8.5590 ha         1 J9I       0.118000
     51 H18        -12.6630   -36.6080     6.8910 ha         1 J9I       0.115000
     52 H19        -14.0110   -33.4370     7.1880 hc         1 J9I       0.046367
     53 H20        -12.5270   -33.1560     6.2540 hc         1 J9I       0.046367
     54 H21        -13.4980   -34.6010     5.9630 hc         1 J9I       0.046367
     55 H22         -8.5550   -35.3440    11.0920 ha         1 J9I       0.115500
     56 H23        -10.0530   -39.8960    12.4450 ha         1 J9I       0.119500
     57 H25         -3.6670   -41.0510    14.7460 h1         1 J9I       0.037450
     58 H26         -3.6360   -39.6570    13.6570 h1         1 J9I       0.037450
     59 H28         -7.0190   -39.9670    11.2970 h1         1 J9I       0.039450
     60 H29         -7.0620   -41.3580    12.3880 h1         1 J9I       0.039450
     61 H30         -8.5400   -25.5120    11.3640 hn         1 J9I       0.491500
     62 H31         -9.5240   -24.1160    11.0710 hn         1 J9I       0.491500
     63 C21         -7.7820   -39.1070    13.7910 c3         1 J9I       0.213100
@<TRIPOS>BOND
     1     1    16 ar  
     2     1    17 ar  
     3     2     4 1   
     4     2     5 2   
     5     3    18 ar  
     6     3    19 ar  
     7     3    33 1   
     8     4     6 2   
     9     4    16 1   
    10     5    20 1   
    11     5    21 1   
    12     6    20 1   
    13     6    34 1   
    14     7     9 ar  
    15     7    21 1   
    16     7    22 ar  
    17     8    10 1   
    18     8    22 ar  
    19     8    23 ar  
    20     9    24 ar  
    21     9    25 1   
    22    10    12 ar  
    23    10    26 ar  
    24    11    26 ar  
    25    11    27 ar  
    26    11    35 1   
    27    12    28 ar  
    28    12    36 1   
    29    13    29 1   
    30    13    30 1   
    31    13    39 1   
    32    13    40 1   
    33    14    31 1   
    34    14    32 1   
    35    14    41 1   
    36    14    42 1   
    37    15    31 1   
    38    15    43 1   
    39    15    44 1   
    40    15    45 1   
    41    16    19 ar  
    42    17    18 ar  
    43    17    46 1   
    44    18    47 1   
    45    21    48 1   
    46    22    49 1   
    47    23    24 ar  
    48    23    50 1   
    49    24    51 1   
    50    25    52 1   
    51    25    53 1   
    52    25    54 1   
    53    26    55 1   
    54    27    28 ar  
    55    27    63 1   
    56    28    56 1   
    57    29    32 1   
    58    29    63 1   
    59    30    31 1   
    60    30    57 1   
    61    30    58 1   
    62    32    59 1   
    63    32    60 1   
    64    33    61 1   
    65    33    62 1   
    66    37    63 1   
    67    38    63 1   
@<TRIPOS>SUBSTRUCTURE
     1 J9I         1 TEMP              0 ****  ****    0 ROOT
