@<TRIPOS>MOLECULE
J9K
   61    62     1     0     0
SMALL
abcg2


@<TRIPOS>ATOM
      1 C01          3.7110    -3.7190     1.2040 c3         1 J9K      -0.108433
      2 C02          4.5110    -3.0120     0.1160 c3         1 J9K       0.225000
      3 C03          5.8670    -2.5310     0.6200 c3         1 J9K      -0.108433
      4 C04          4.7060    -3.9550    -1.0660 c3         1 J9K      -0.108433
      5 O05          3.7620    -1.9130    -0.4650 os         1 J9K      -0.479100
      6 C06          3.3590    -0.8640     0.2510 c          1 J9K       0.656100
      7 O07          3.5180    -0.7180     1.4450 o          1 J9K      -0.540000
      8 N08          2.7050     0.0120    -0.5480 ns         1 J9K      -0.497900
      9 C09          2.3150     1.3310    -0.1090 c3         1 J9K       0.136700
     10 C10          0.9010     1.6520    -0.5770 c3         1 J9K       0.046600
     11 S11         -0.2300     0.3130    -0.1070 ss         1 J9K      -0.411000
     12 C12         -1.8150     1.1700    -0.3350 c3         1 J9K       0.062600
     13 C13         -2.9430     0.1510    -0.2590 c3         1 J9K      -0.149400
     14 C14         -4.3010     0.8170    -0.3570 c          1 J9K       0.602100
     15 O15         -4.5590     1.8500     0.2450 o          1 J9K      -0.607100
     16 N16         -5.1870     0.1840    -1.1430 ns         1 J9K      -0.504900
     17 C17         -6.5630     0.6060    -1.3040 c3         1 J9K       0.154300
     18 C18         -7.4820    -0.0150    -0.2850 ca         1 J9K      -0.172300
     19 C19         -7.6220     0.5080     0.9970 ca         1 J9K      -0.049000
     20 C20         -8.4600    -0.1300     1.8970 ca         1 J9K      -0.166000
     21 C21         -9.1320    -1.2710     1.4840 ca         1 J9K       0.339900
     22 N22         -9.0150    -1.7800     0.2640 nb         1 J9K      -0.668000
     23 C23         -8.2100    -1.1600    -0.5900 ca         1 J9K       0.341900
     24 C24          3.2960     2.4050    -0.6070 c3         1 J9K      -0.053100
     25 C25          4.7040     2.1280    -0.1650 ca         1 J9K      -0.082300
     26 C26          5.5720     1.3880    -0.9640 ca         1 J9K      -0.098000
     27 C27          6.8530     1.0780    -0.5260 ca         1 J9K      -0.107000
     28 C28          7.2870     1.5090     0.7200 ca         1 J9K      -0.107000
     29 C29          6.4330     2.2550     1.5220 ca         1 J9K      -0.107000
     30 C30          5.1520     2.5580     1.0810 ca         1 J9K      -0.098000
     31 H01          3.6040    -3.1190     2.1040 hc         1 J9K       0.048700
     32 H01A         2.7170    -3.9890     0.8420 hc         1 J9K       0.048700
     33 H01B         4.2230    -4.6430     1.4770 hc         1 J9K       0.048700
     34 H03          6.4500    -3.3880     0.9590 hc         1 J9K       0.048700
     35 H03A         6.4260    -2.0420    -0.1790 hc         1 J9K       0.048700
     36 H03B         5.7790    -1.8330     1.4490 hc         1 J9K       0.048700
     37 H04          3.7490    -4.3030    -1.4580 hc         1 J9K       0.048700
     38 H04A         5.2570    -3.4700    -1.8730 hc         1 J9K       0.048700
     39 H04B         5.2750    -4.8300    -0.7520 hc         1 J9K       0.048700
     40 HN08         2.7030    -0.1670    -1.5410 hn         1 J9K       0.318500
     41 H09          2.3250     1.3250     0.9810 h1         1 J9K       0.099700
     42 H10          0.5720     2.5830    -0.1120 h1         1 J9K       0.062200
     43 H10A         0.8700     1.7910    -1.6610 h1         1 J9K       0.062200
     44 H12         -1.9330     1.9350     0.4310 h1         1 J9K       0.070200
     45 H12A        -1.8150     1.6610    -1.3100 h1         1 J9K       0.070200
     46 H13         -2.8170    -0.6050    -1.0350 hc         1 J9K       0.071200
     47 H13A        -2.9090    -0.3740     0.7010 hc         1 J9K       0.071200
     48 HN16        -4.9170    -0.6850    -1.5730 hn         1 J9K       0.315500
     49 H17         -6.6080     1.6920    -1.2440 h1         1 J9K       0.064200
     50 H17A        -6.8790     0.3260    -2.3090 h1         1 J9K       0.064200
     51 H19         -7.0880     1.4040     1.2830 ha         1 J9K       0.138000
     52 H20         -8.5950     0.2490     2.9010 ha         1 J9K       0.126000
     53 H21         -9.7960    -1.7910     2.1660 h4         1 J9K       0.019100
     54 H23         -8.1380    -1.5920    -1.5840 h4         1 J9K       0.012100
     55 H24          3.2430     2.4550    -1.6990 hc         1 J9K       0.050700
     56 H24A         2.9640     3.3760    -0.2320 hc         1 J9K       0.050700
     57 H26          5.2470     1.0510    -1.9410 ha         1 J9K       0.109000
     58 H27          7.5120     0.4980    -1.1590 ha         1 J9K       0.111500
     59 H28          8.2860     1.2700     1.0610 ha         1 J9K       0.111000
     60 H29          6.7630     2.6030     2.4920 ha         1 J9K       0.111500
     61 H30          4.4910     3.1390     1.7140 ha         1 J9K       0.109000
@<TRIPOS>BOND
     1     1     2 1   
     2     1    31 1   
     3     1    32 1   
     4     1    33 1   
     5     2     3 1   
     6     2     4 1   
     7     2     5 1   
     8     3    34 1   
     9     3    35 1   
    10     3    36 1   
    11     4    37 1   
    12     4    38 1   
    13     4    39 1   
    14     5     6 1   
    15     6     7 2   
    16     6     8 1   
    17     8     9 1   
    18     8    40 1   
    19     9    10 1   
    20     9    24 1   
    21     9    41 1   
    22    10    11 1   
    23    10    42 1   
    24    10    43 1   
    25    11    12 1   
    26    12    13 1   
    27    12    44 1   
    28    12    45 1   
    29    13    14 1   
    30    13    46 1   
    31    13    47 1   
    32    14    15 2   
    33    14    16 1   
    34    16    17 1   
    35    16    48 1   
    36    17    18 1   
    37    17    49 1   
    38    17    50 1   
    39    18    19 ar  
    40    18    23 ar  
    41    19    20 ar  
    42    19    51 1   
    43    20    21 ar  
    44    20    52 1   
    45    21    22 ar  
    46    21    53 1   
    47    22    23 ar  
    48    23    54 1   
    49    24    25 1   
    50    24    55 1   
    51    24    56 1   
    52    25    26 ar  
    53    25    30 ar  
    54    26    27 ar  
    55    26    57 1   
    56    27    28 ar  
    57    27    58 1   
    58    28    29 ar  
    59    28    59 1   
    60    29    30 ar  
    61    29    60 1   
    62    30    61 1   
@<TRIPOS>SUBSTRUCTURE
     1 J9K         1 TEMP              0 ****  ****    0 ROOT
