@<TRIPOS>MOLECULE
J9K
   61    62     1     0     0
SMALL
No Charge or Current Charge


@<TRIPOS>ATOM
      1 C01          3.8880    -3.7050     1.3510 c3         1 J9K      -0.108433
      2 C02          4.4850    -3.0530     0.0770 c3         1 J9K       0.225000
      3 C03          5.9350    -2.5380     0.2770 c3         1 J9K      -0.108433
      4 C04          4.4410    -4.0570    -1.0970 c3         1 J9K      -0.108433
      5 O05          3.6410    -1.9610    -0.3560 os         1 J9K      -0.479100
      6 C06          3.4320    -0.8480     0.4120 c          1 J9K       0.656100
      7 O07          3.8460    -0.6410     1.5420 o          1 J9K      -0.540000
      8 N08          2.6960     0.0350    -0.3230 ns         1 J9K      -0.497900
      9 C09          2.3750     1.4060     0.0910 c3         1 J9K       0.136700
     10 C10          0.9010     1.7550    -0.2220 c3         1 J9K       0.046600
     11 S11         -0.2740     0.6400     0.6800 ss         1 J9K      -0.411000
     12 C12         -1.8830     1.3090     0.0640 c3         1 J9K       0.062600
     13 C13         -3.0540     0.5260     0.6850 c3         1 J9K      -0.149400
     14 C14         -4.3930     1.0630     0.1840 c          1 J9K       0.602100
     15 O15         -4.8540     2.1290     0.5640 o          1 J9K      -0.607100
     16 N16         -5.0580     0.2450    -0.7010 ns         1 J9K      -0.504900
     17 C17         -6.3630     0.5400    -1.2920 c3         1 J9K       0.154300
     18 C18         -7.4810    -0.1530    -0.5320 ca         1 J9K      -0.172300
     19 C19         -7.9620     0.3730     0.6810 ca         1 J9K      -0.049000
     20 C20         -8.9970    -0.3110     1.3370 ca         1 J9K      -0.166000
     21 C21         -9.5150    -1.4850     0.7660 ca         1 J9K       0.339900
     22 N22         -9.0590    -1.9960    -0.4010 nb         1 J9K      -0.668000
     23 C23         -8.0600    -1.3360    -1.0320 ca         1 J9K       0.341900
     24 C24          3.3610     2.4160    -0.5470 c3         1 J9K      -0.053100
     25 C25          4.8230     2.0900    -0.2540 ca         1 J9K      -0.082300
     26 C26          5.6060     1.4040    -1.2040 ca         1 J9K      -0.098000
     27 C27          6.9450     1.0820    -0.9220 ca         1 J9K      -0.107000
     28 C28          7.5100     1.4460     0.3120 ca         1 J9K      -0.107000
     29 C29          6.7360     2.1330     1.2620 ca         1 J9K      -0.107000
     30 C30          5.3960     2.4540     0.9800 ca         1 J9K      -0.098000
     31 H01          4.0340    -3.0800     2.2390 hc         1 J9K       0.048700
     32 H01A         2.8140    -3.8880     1.2280 hc         1 J9K       0.048700
     33 H01B         4.3750    -4.6670     1.5510 hc         1 J9K       0.048700
     34 H03          6.6270    -3.3800     0.3940 hc         1 J9K       0.048700
     35 H03A         6.2610    -1.9490    -0.5880 hc         1 J9K       0.048700
     36 H03B         6.0290    -1.9140     1.1730 hc         1 J9K       0.048700
     37 H04          3.4150    -4.3980    -1.2800 hc         1 J9K       0.048700
     38 H04A         4.8180    -3.5960    -2.0180 hc         1 J9K       0.048700
     39 H04B         5.0590    -4.9370    -0.8810 hc         1 J9K       0.048700
     40 HN08         2.4210    -0.2800    -1.2430 hn         1 J9K       0.318500
     41 H09          2.4960     1.4730     1.1810 h1         1 J9K       0.099700
     42 H10          0.7010     2.7920     0.0780 h1         1 J9K       0.062200
     43 H10A         0.7220     1.6700    -1.3020 h1         1 J9K       0.062200
     44 H12         -1.9590     2.3720     0.3320 h1         1 J9K       0.070200
     45 H12A        -1.9140     1.2230    -1.0300 h1         1 J9K       0.070200
     46 H13         -2.9450    -0.5320     0.4220 hc         1 J9K       0.071200
     47 H13A        -3.0110     0.6460     1.7740 hc         1 J9K       0.071200
     48 HN16        -4.6020    -0.6250    -0.9500 hn         1 J9K       0.315500
     49 H17         -6.5350     1.6250    -1.2990 h1         1 J9K       0.064200
     50 H17A        -6.3580     0.2030    -2.3370 h1         1 J9K       0.064200
     51 H19         -7.5430     1.2850     1.1030 ha         1 J9K       0.138000
     52 H20         -9.3990     0.0590     2.2770 ha         1 J9K       0.126000
     53 H21        -10.3190    -2.0330     1.2550 h4         1 J9K       0.019100
     54 H23         -7.7130    -1.7720    -1.9680 h4         1 J9K       0.012100
     55 H24          3.1930     2.4430    -1.6310 hc         1 J9K       0.050700
     56 H24A         3.1260     3.4220    -0.1800 hc         1 J9K       0.050700
     57 H26          5.1740     1.1100    -2.1580 ha         1 J9K       0.109000
     58 H27          7.5420     0.5490    -1.6570 ha         1 J9K       0.111500
     59 H28          8.5460     1.1960     0.5310 ha         1 J9K       0.111000
     60 H29          7.1720     2.4140     2.2180 ha         1 J9K       0.111500
     61 H30          4.8020     2.9790     1.7250 ha         1 J9K       0.109000
@<TRIPOS>BOND
     1     1     2 1   
     2     1    31 1   
     3     1    32 1   
     4     1    33 1   
     5     2     3 1   
     6     2     4 1   
     7     2     5 1   
     8     3    34 1   
     9     3    35 1   
    10     3    36 1   
    11     4    37 1   
    12     4    38 1   
    13     4    39 1   
    14     5     6 1   
    15     6     7 2   
    16     6     8 1   
    17     8     9 1   
    18     8    40 1   
    19     9    10 1   
    20     9    24 1   
    21     9    41 1   
    22    10    11 1   
    23    10    42 1   
    24    10    43 1   
    25    11    12 1   
    26    12    13 1   
    27    12    44 1   
    28    12    45 1   
    29    13    14 1   
    30    13    46 1   
    31    13    47 1   
    32    14    15 2   
    33    14    16 1   
    34    16    17 1   
    35    16    48 1   
    36    17    18 1   
    37    17    49 1   
    38    17    50 1   
    39    18    19 ar  
    40    18    23 ar  
    41    19    20 ar  
    42    19    51 1   
    43    20    21 ar  
    44    20    52 1   
    45    21    22 ar  
    46    21    53 1   
    47    22    23 ar  
    48    23    54 1   
    49    24    25 1   
    50    24    55 1   
    51    24    56 1   
    52    25    26 ar  
    53    25    30 ar  
    54    26    27 ar  
    55    26    57 1   
    56    27    28 ar  
    57    27    58 1   
    58    28    29 ar  
    59    28    59 1   
    60    29    30 ar  
    61    29    60 1   
    62    30    61 1   
@<TRIPOS>SUBSTRUCTURE
     1 J9K         1 TEMP              0 ****  ****    0 ROOT
