@<TRIPOS>MOLECULE
J9L
   37    39     1     0     0
SMALL
bcc


@<TRIPOS>ATOM
      1 C4          12.8310    51.1810    21.3690 c3         1 J9L       0.230100
      2 C5          13.2390    49.8670    17.4270 c          1 J9L       0.683500
      3 C3          13.9390    50.6370    19.2850 c2         1 J9L       0.849500
      4 N           14.0000    51.0810    20.5210 nu         1 J9L      -0.823200
      5 C2          14.7430    50.0870    17.3040 c5         1 J9L      -0.003900
      6 C1          15.5420    48.8240    16.9740 c3         1 J9L       0.026500
      7 C           15.3160    47.7150    18.0000 c3         1 J9L      -0.092100
      8 O           15.0780    50.5970    18.5970 os         1 J9L      -0.422400
      9 C10         19.5330    50.7080    13.8250 ca         1 J9L      -0.104000
     10 C11         18.2000    50.5000    13.4400 ca         1 J9L      -0.161000
     11 C12         17.2440    49.9930    14.3040 ca         1 J9L      -0.026300
     12 C13         15.8440    49.7660    13.8150 c3         1 J9L      -0.048800
     13 C14         17.6510    49.6880    15.6210 ca         1 J9L      -0.088800
     14 C6          16.9930    49.1580    16.7890 cc         1 J9L      -0.145400
     15 C7          17.9510    49.0770    17.7620 cd         1 J9L      -0.097100
     16 C8          19.0030    49.8980    15.9820 ca         1 J9L      -0.046200
     17 C9          19.9570    50.4060    15.1010 ca         1 J9L      -0.153000
     18 N1          12.8480    50.2360    18.6780 ne         1 J9L      -0.780100
     19 N2          19.1480    49.5180    17.2820 na         1 J9L      -0.173400
     20 H1          13.1460    51.5770    22.3290 h1         1 J9L       0.052367
     21 H2          12.0890    51.8540    20.9410 h1         1 J9L       0.052367
     22 H3          12.3710    50.2070    21.5270 h1         1 J9L       0.052367
     23 H4          14.8960    51.3610    20.8880 hn         1 J9L       0.456800
     24 H5          14.9510    50.8710    16.5700 h1         1 J9L       0.104700
     25 H6          15.1330    48.4750    16.0230 hc         1 J9L       0.081700
     26 H7          14.2640    47.4320    18.0560 hc         1 J9L       0.041033
     27 H8          15.8770    46.8270    17.7150 hc         1 J9L       0.041033
     28 H9          15.6380    48.0010    19.0020 hc         1 J9L       0.041033
     29 H11         17.9070    50.7430    12.4250 ha         1 J9L       0.128000
     30 H12         15.5670    48.7110    13.8600 hc         1 J9L       0.044367
     31 H13         15.1040    50.3150    14.3990 hc         1 J9L       0.044367
     32 H14         15.7400    50.0850    12.7790 hc         1 J9L       0.044367
     33 H15         17.8690    48.7310    18.7800 h4         1 J9L       0.161000
     34 H16         20.9850    50.5550    15.4090 ha         1 J9L       0.130000
     35 H17         20.0080    49.5390    17.8050 hn         1 J9L       0.298700
     36 O1          12.5360    49.4300    16.5400 o          1 J9L      -0.529100
     37 H10         20.2370    51.1070    13.1060 ha         1 J9L       0.129000
@<TRIPOS>BOND
     1     1     4 1   
     2     1    20 1   
     3     1    21 1   
     4     1    22 1   
     5     2     5 1   
     6     2    18 1   
     7     2    36 2   
     8     3     4 1   
     9     3     8 1   
    10     3    18 2   
    11     4    23 1   
    12     5     6 1   
    13     5     8 1   
    14     5    24 1   
    15     6     7 1   
    16     6    14 1   
    17     6    25 1   
    18     7    26 1   
    19     7    27 1   
    20     7    28 1   
    21     9    10 ar  
    22     9    17 ar  
    23     9    37 1   
    24    10    11 ar  
    25    10    29 1   
    26    11    12 1   
    27    11    13 ar  
    28    12    30 1   
    29    12    31 1   
    30    12    32 1   
    31    13    14 1   
    32    13    16 ar  
    33    14    15 2   
    34    15    19 1   
    35    15    33 1   
    36    16    17 ar  
    37    16    19 1   
    38    17    34 1   
    39    19    35 1   
@<TRIPOS>SUBSTRUCTURE
     1 J9L         1 TEMP              0 ****  ****    0 ROOT
