@<TRIPOS>MOLECULE
J9L
   37    39     1     0     0
SMALL
No Charge or Current Charge


@<TRIPOS>ATOM
      1 C4          12.6850    51.1450    21.3860 c3         1 J9L       0.230100
      2 C5          13.2690    49.9680    17.3270 c          1 J9L       0.683500
      3 C3          13.8770    50.7380    19.2260 c2         1 J9L       0.849500
      4 N           13.8540    51.2120    20.4930 nu         1 J9L      -0.878400
      5 C2          14.8110    50.1460    17.3550 c5         1 J9L       0.019300
      6 C1          15.5910    48.8380    17.0290 c3         1 J9L       0.026500
      7 C           15.3660    47.7210    18.0810 c3         1 J9L      -0.092100
      8 O           15.1120    50.6220    18.6950 os         1 J9L      -0.445600
      9 C10         19.5130    50.7080    13.7430 ca         1 J9L      -0.086000
     10 C11         18.1600    50.5190    13.3930 ca         1 J9L      -0.143000
     11 C12         17.2300    49.9930    14.3210 ca         1 J9L      -0.026300
     12 C13         15.7910    49.7730    13.8670 c3         1 J9L      -0.048800
     13 C14         17.7090    49.6730    15.6180 ca         1 J9L      -0.088800
     14 C6          17.0630    49.1250    16.8010 cc         1 J9L      -0.145400
     15 C7          18.0690    48.9960    17.7570 cd         1 J9L      -0.147100
     16 C8          19.0330    49.8460    15.9390 ca         1 J9L      -0.046200
     17 C9          19.9630    50.3630    15.0290 ca         1 J9L      -0.135000
     18 N1          12.8450    50.4110    18.5590 ne         1 J9L      -0.780100
     19 N2          19.2980    49.4400    17.2300 na         1 J9L      -0.223700
     20 H1          12.9210    51.5860    22.3640 h1         1 J9L       0.052367
     21 H2          11.8390    51.6980    20.9560 h1         1 J9L       0.052367
     22 H3          12.3760    50.1030    21.5410 h1         1 J9L       0.052367
     23 H4          14.7770    51.2970    20.9080 hn         1 J9L       0.512000
     24 H5          15.0650    50.9340    16.6350 h1         1 J9L       0.104700
     25 H6          15.1840    48.4280    16.1000 hc         1 J9L       0.081700
     26 H7          14.3060    47.4500    18.1440 hc         1 J9L       0.041033
     27 H8          15.9250    46.8190    17.8050 hc         1 J9L       0.041033
     28 H9          15.6950    48.0350    19.0790 hc         1 J9L       0.041033
     29 H11         17.8360    50.7780    12.3870 ha         1 J9L       0.110000
     30 H12         15.5320    48.7090    13.8810 hc         1 J9L       0.044367
     31 H13         15.0790    50.3170    14.4930 hc         1 J9L       0.044367
     32 H14         15.6360    50.1220    12.8390 hc         1 J9L       0.044367
     33 H15         17.9930    48.6470    18.7840 h4         1 J9L       0.211000
     34 H16         21.0060    50.4940    15.3060 ha         1 J9L       0.112000
     35 H17         20.1940    49.4690    17.7070 hn         1 J9L       0.349000
     36 O1          12.5620    49.5240    16.4370 o          1 J9L      -0.529100
     37 H10         20.2120    51.1110    13.0130 ha         1 J9L       0.111000
@<TRIPOS>BOND
     1     1     4 1   
     2     1    20 1   
     3     1    21 1   
     4     1    22 1   
     5     2     5 1   
     6     2    18 1   
     7     2    36 2   
     8     3     4 1   
     9     3     8 1   
    10     3    18 2   
    11     4    23 1   
    12     5     6 1   
    13     5     8 1   
    14     5    24 1   
    15     6     7 1   
    16     6    14 1   
    17     6    25 1   
    18     7    26 1   
    19     7    27 1   
    20     7    28 1   
    21     9    10 ar  
    22     9    17 ar  
    23     9    37 1   
    24    10    11 ar  
    25    10    29 1   
    26    11    12 1   
    27    11    13 ar  
    28    12    30 1   
    29    12    31 1   
    30    12    32 1   
    31    13    14 1   
    32    13    16 ar  
    33    14    15 2   
    34    15    19 1   
    35    15    33 1   
    36    16    17 ar  
    37    16    19 1   
    38    17    34 1   
    39    19    35 1   
@<TRIPOS>SUBSTRUCTURE
     1 J9L         1 TEMP              0 ****  ****    0 ROOT
