@<TRIPOS>MOLECULE
J9N
   18    19     1     0     0
SMALL
No Charge or Current Charge


@<TRIPOS>ATOM
      1 N01          3.9610    -0.8240     0.1400 nv         1 J9N      -1.039200
      2 C02          2.7440    -0.2140     0.1030 c2         1 J9N       0.580200
      3 C03          1.4090    -0.9020     0.0780 c5         1 J9N      -0.258000
      4 C04          0.5870     0.3740     0.0430 ce         1 J9N       0.379900
      5 C05         -0.8730     0.3280     0.0120 cc         1 J9N      -0.237900
      6 S06         -1.7440    -1.2070     0.0150 ss         1 J9N       0.184000
      7 C07         -3.2950    -0.3780    -0.0310 cc         1 J9N      -0.233000
      8 C08         -3.1220     0.9820    -0.0470 cd         1 J9N      -0.135000
      9 C09         -1.7590     1.3800    -0.0230 cd         1 J9N      -0.088000
     10 N10          1.2960     1.4700     0.0430 nf         1 J9N      -0.314700
     11 N11          2.6050     1.0730     0.0800 nf         1 J9N      -0.470700
     12 H1           3.9740    -1.7590    -0.2570 hn         1 J9N       0.498000
     13 H2           4.7270    -0.2290    -0.1620 hn         1 J9N       0.498000
     14 H3           1.2760    -1.5170    -0.8170 hc         1 J9N       0.096200
     15 H4          -4.2120    -0.9540    -0.0420 h4         1 J9N       0.151000
     16 H5          -3.9480     1.6870    -0.0750 ha         1 J9N       0.137000
     17 H6          -1.4480     2.4210    -0.0310 ha         1 J9N       0.153000
     18 H8           1.2340    -1.4940     0.9810 hc         1 J9N       0.096200
@<TRIPOS>BOND
     1     1     2 1   
     2     1    12 1   
     3     1    13 1   
     4     2     3 1   
     5     2    11 2   
     6     3     4 1   
     7     3    14 1   
     8     3    18 1   
     9     4     5 1   
    10     4    10 2   
    11     5     6 1   
    12     5     9 2   
    13     6     7 1   
    14     7     8 2   
    15     7    15 1   
    16     8     9 1   
    17     8    16 1   
    18     9    17 1   
    19    10    11 1   
@<TRIPOS>SUBSTRUCTURE
     1 J9N         1 TEMP              0 ****  ****    0 ROOT
