@<TRIPOS>MOLECULE
J9N
   18    19     1     0     0
SMALL
abcg2


@<TRIPOS>ATOM
      1 N01          3.9180    -0.7950     0.0500 nv         1 J9N      -1.039200
      2 C02          2.7430    -0.1680     0.0210 c2         1 J9N       0.580200
      3 C03          1.4280    -0.8760     0.0140 c5         1 J9N      -0.258000
      4 C04          0.5450     0.3280     0.0090 ce         1 J9N       0.379900
      5 C05         -0.8990     0.3170     0.0000 cc         1 J9N      -0.237900
      6 S06         -1.7690    -1.1730    -0.0010 ss         1 J9N       0.184000
      7 C07         -3.2780    -0.3670    -0.0120 cc         1 J9N      -0.233000
      8 C08         -3.1220     0.9870    -0.0140 cd         1 J9N      -0.135000
      9 C09         -1.7620     1.3820    -0.0080 cd         1 J9N      -0.088000
     10 N10          1.2390     1.4100     0.0110 nf         1 J9N      -0.314700
     11 N11          2.5970     1.1240     0.0170 nf         1 J9N      -0.470700
     12 H1           3.9750    -1.7940    -0.0380 hn         1 J9N       0.498000
     13 H2           4.7750    -0.2730    -0.0160 hn         1 J9N       0.498000
     14 H3           1.3040    -1.5110    -0.8680 hc         1 J9N       0.096200
     15 H4          -4.1970    -0.9330    -0.0170 h4         1 J9N       0.151000
     16 H5          -3.9500     1.6810    -0.0220 ha         1 J9N       0.137000
     17 H6          -1.4310     2.4100    -0.0090 ha         1 J9N       0.153000
     18 H8           1.2950    -1.5120     0.8930 hc         1 J9N       0.096200
@<TRIPOS>BOND
     1     1     2 1   
     2     1    12 1   
     3     1    13 1   
     4     2     3 1   
     5     2    11 2   
     6     3     4 1   
     7     3    14 1   
     8     3    18 1   
     9     4     5 1   
    10     4    10 2   
    11     5     6 1   
    12     5     9 2   
    13     6     7 1   
    14     7     8 2   
    15     7    15 1   
    16     8     9 1   
    17     8    16 1   
    18     9    17 1   
    19    10    11 1   
@<TRIPOS>SUBSTRUCTURE
     1 J9N         1 TEMP              0 ****  ****    0 ROOT
