@<TRIPOS>MOLECULE
J9O
   70    74     1     0     0
SMALL
abcg2


@<TRIPOS>ATOM
      1 C10        147.4450   149.0600   118.1130 c3         1 J9O       0.161200
      2 C13        147.9410   145.4890   119.2040 c6         1 J9O       0.099000
      3 C15        146.1650   149.3820   118.8630 cc         1 J9O       0.529900
      4 C17        150.0130   144.2960   118.7420 c          1 J9O       0.613100
      5 C20        151.5290   144.3430   118.5990 c3         1 J9O       0.075600
      6 C21        143.8780   149.4750   118.9660 ca         1 J9O       0.192400
      7 C22        143.8910   149.9400   120.2850 ca         1 J9O      -0.200600
      8 C24        142.6490   149.2770   118.3240 ca         1 J9O      -0.107000
      9 C26        142.6930   150.2070   120.9540 ca         1 J9O      -0.040000
     10 C28        141.4910   150.0090   120.3110 ca         1 J9O      -0.137000
     11 C11        147.4090   146.6250   118.3470 c6         1 J9O       0.161300
     12 C12        149.4780   147.8130   118.6040 c6         1 J9O       0.161300
     13 C14        150.0190   146.6870   119.4690 c6         1 J9O       0.099000
     14 C16        147.2340   148.9990   116.6030 c3         1 J9O      -0.108100
     15 C18        145.1710   150.1430   120.9470 c          1 J9O       0.583600
     16 C19        147.5530   150.0150   120.7830 ca         1 J9O      -0.003400
     17 C23        148.0040   149.0570   121.6970 ca         1 J9O       0.190100
     18 C25        148.3000   151.1460   120.5110 ca         1 J9O      -0.070000
     19 C27        141.4730   149.5400   118.9930 ca         1 J9O      -0.076000
     20 C29        149.2390   149.2550   122.3090 ca         1 J9O      -0.208000
     21 C30        149.5340   151.3350   121.1180 ca         1 J9O      -0.152000
     22 C31        149.9940   150.3840   122.0130 ca         1 J9O      -0.065000
     23 C32        153.1360   145.4570   117.2520 ca         1 J9O       0.139100
     24 C33        147.5040   147.0520   122.9090 c3         1 J9O       0.164600
     25 C34        153.3840   146.3960   116.2500 ca         1 J9O      -0.162500
     26 C35        154.2050   144.8330   117.8870 ca         1 J9O      -0.162500
     27 C36        147.1830   147.5460   124.3040 c3         1 J9O      -0.128100
     28 C37        154.6810   146.7090   115.8890 ca         1 J9O      -0.065500
     29 C38        155.5080   145.1510   117.5250 ca         1 J9O      -0.065500
     30 C39        155.7420   146.0840   116.5320 ca         1 J9O       0.084000
     31 N06        148.0360   147.8780   118.7190 n3         1 J9O      -0.741600
     32 N07        149.3890   145.4300   119.1100 n          1 J9O      -0.402800
     33 N08        146.2800   149.8340   120.1620 n          1 J9O      -0.236500
     34 N09        145.0370   149.2100   118.2790 nd         1 J9O      -0.645100
     35 O02        149.4240   143.2470   118.5260 o          1 J9O      -0.590100
     36 O03        151.8380   145.2180   117.5330 os         1 J9O      -0.338100
     37 O04        145.3040   150.5550   122.0820 o          1 J9O      -0.524000
     38 O05        147.1960   148.0110   121.9040 os         1 J9O      -0.328100
     39 CL1        157.3710   146.4810   116.0860 cl         1 J9O      -0.201000
     40 H1         148.1460   149.8780   118.2980 h1         1 J9O       0.068700
     41 H2         147.6570   145.6460   120.2480 h1         1 J9O       0.060700
     42 H3         147.5120   144.5460   118.8770 h1         1 J9O       0.060700
     43 H4         152.0020   144.6670   119.5340 h1         1 J9O       0.059700
     44 H5         151.8710   143.3270   118.3860 h1         1 J9O       0.059700
     45 H6         142.6440   148.9160   117.3040 ha         1 J9O       0.131000
     46 H7         142.7160   150.5680   121.9740 ha         1 J9O       0.135000
     47 H8         140.5600   150.2140   120.8240 ha         1 J9O       0.118000
     48 H9         147.5730   146.3690   117.2890 h1         1 J9O       0.047700
     49 H10        146.3300   146.6950   118.4970 h1         1 J9O       0.047700
     50 H11        149.9070   148.7540   118.9540 h1         1 J9O       0.047700
     51 H12        149.8180   147.6600   117.5670 h1         1 J9O       0.047700
     52 H13        151.0990   146.6400   119.3750 h1         1 J9O       0.060700
     53 H14        149.7950   146.9000   120.5190 h1         1 J9O       0.060700
     54 H15        146.9130   149.9680   116.2220 hc         1 J9O       0.048700
     55 H16        148.1790   148.7500   116.1170 hc         1 J9O       0.048700
     56 H17        146.4920   148.2610   116.3060 hc         1 J9O       0.048700
     57 H18        147.9110   151.8780   119.8140 ha         1 J9O       0.122000
     58 H19        140.5260   149.3840   118.4930 ha         1 J9O       0.116000
     59 H20        149.6300   148.5400   123.0200 ha         1 J9O       0.119000
     60 H21        150.1200   152.2170   120.8970 ha         1 J9O       0.120000
     61 H22        150.9510   150.5150   122.5000 ha         1 J9O       0.113000
     62 H23        148.5450   146.7250   122.8290 h1         1 J9O       0.050200
     63 H24        146.8830   146.1900   122.6650 h1         1 J9O       0.050200
     64 H25        152.5530   146.8820   115.7550 ha         1 J9O       0.127500
     65 H26        154.0550   144.0960   118.6650 ha         1 J9O       0.127500
     66 H27        147.3630   146.7440   125.0210 hc         1 J9O       0.050033
     67 H28        147.7980   148.3960   124.6000 hc         1 J9O       0.050033
     68 H29        146.1360   147.8380   124.3820 hc         1 J9O       0.050033
     69 H30        154.8610   147.4400   115.1120 ha         1 J9O       0.130500
     70 H31        156.3330   144.6620   118.0250 ha         1 J9O       0.130500
@<TRIPOS>BOND
     1     1     3 1   
     2     1    14 1   
     3     1    31 1   
     4     1    40 1   
     5     2    11 1   
     6     2    32 1   
     7     2    41 1   
     8     2    42 1   
     9     3    33 1   
    10     3    34 2   
    11     4     5 1   
    12     4    32 1   
    13     4    35 2   
    14     5    36 1   
    15     5    43 1   
    16     5    44 1   
    17     6     7 ar  
    18     6     8 ar  
    19     6    34 1   
    20     7     9 ar  
    21     7    15 1   
    22     8    19 ar  
    23     8    45 1   
    24     9    10 ar  
    25     9    46 1   
    26    10    19 ar  
    27    10    47 1   
    28    11    31 1   
    29    11    48 1   
    30    11    49 1   
    31    12    13 1   
    32    12    31 1   
    33    12    50 1   
    34    12    51 1   
    35    13    32 1   
    36    13    52 1   
    37    13    53 1   
    38    14    54 1   
    39    14    55 1   
    40    14    56 1   
    41    15    33 1   
    42    15    37 2   
    43    16    17 ar  
    44    16    18 ar  
    45    16    33 1   
    46    17    20 ar  
    47    17    38 1   
    48    18    21 ar  
    49    18    57 1   
    50    19    58 1   
    51    20    22 ar  
    52    20    59 1   
    53    21    22 ar  
    54    21    60 1   
    55    22    61 1   
    56    23    25 ar  
    57    23    26 ar  
    58    23    36 1   
    59    24    27 1   
    60    24    38 1   
    61    24    62 1   
    62    24    63 1   
    63    25    28 ar  
    64    25    64 1   
    65    26    29 ar  
    66    26    65 1   
    67    27    66 1   
    68    27    67 1   
    69    27    68 1   
    70    28    30 ar  
    71    28    69 1   
    72    29    30 ar  
    73    29    70 1   
    74    30    39 1   
@<TRIPOS>SUBSTRUCTURE
     1 J9O         1 TEMP              0 ****  ****    0 ROOT
