@<TRIPOS>MOLECULE
J9O
   70    74     1     0     0
SMALL
No Charge or Current Charge


@<TRIPOS>ATOM
      1 C10        147.2190   149.4440   118.1590 c3         1 J9O       0.161200
      2 C13        148.1120   145.7360   118.8820 c6         1 J9O       0.099000
      3 C15        145.9200   149.6290   118.9890 cc         1 J9O       0.529900
      4 C17        150.3320   144.5740   119.0730 c          1 J9O       0.613100
      5 C20        151.8740   144.5880   118.9350 c3         1 J9O       0.075600
      6 C21        143.5970   149.6060   119.1300 ca         1 J9O       0.192400
      7 C22        143.6160   149.9410   120.4890 ca         1 J9O      -0.200600
      8 C24        142.3580   149.4190   118.4910 ca         1 J9O      -0.107000
      9 C26        142.4070   150.0870   121.2060 ca         1 J9O      -0.040000
     10 C28        141.1770   149.8980   120.5570 ca         1 J9O      -0.137000
     11 C11        147.3720   146.9260   118.2160 c6         1 J9O       0.161300
     12 C12        149.4270   148.2270   118.1010 c6         1 J9O       0.161300
     13 C14        150.2380   147.0910   118.7790 c6         1 J9O       0.099000
     14 C16        147.0130   149.5720   116.6220 c3         1 J9O      -0.108100
     15 C18        144.9250   150.1340   121.1520 c          1 J9O       0.583600
     16 C19        147.3590   150.0620   120.9360 ca         1 J9O      -0.003400
     17 C23        147.8690   149.0020   121.7230 ca         1 J9O       0.190100
     18 C25        148.0330   151.2990   120.9130 ca         1 J9O      -0.070000
     19 C27        141.1510   149.5620   119.1960 ca         1 J9O      -0.076000
     20 C29        149.1170   149.1540   122.3700 ca         1 J9O      -0.208000
     21 C30        149.2670   151.4450   121.5660 ca         1 J9O      -0.152000
     22 C31        149.8160   150.3700   122.2820 ca         1 J9O      -0.065000
     23 C32        153.6080   144.9820   117.2120 ca         1 J9O       0.139100
     24 C33        147.4270   146.7620   122.7190 c3         1 J9O       0.164600
     25 C34        153.8960   145.2930   115.8730 ca         1 J9O      -0.162500
     26 C35        154.6670   144.7920   118.1290 ca         1 J9O      -0.162500
     27 C36        147.0240   147.2050   124.1400 c3         1 J9O      -0.128100
     28 C37        155.2300   145.4140   115.4420 ca         1 J9O      -0.065500
     29 C38        156.0010   144.9140   117.6960 ca         1 J9O      -0.065500
     30 C39        156.2800   145.2250   116.3540 ca         1 J9O       0.084000
     31 N06        148.0110   148.2260   118.5430 n3         1 J9O      -0.741600
     32 N07        149.6010   145.7350   118.7220 n          1 J9O      -0.402800
     33 N08        146.0490   149.9620   120.3490 n          1 J9O      -0.236500
     34 N09        144.7480   149.4450   118.3560 nd         1 J9O      -0.645100
     35 O02        149.7500   143.5610   119.4490 o          1 J9O      -0.590100
     36 O03        152.2820   144.8790   117.5770 os         1 J9O      -0.338100
     37 O04        145.0070   150.4350   122.3380 o          1 J9O      -0.524000
     38 O05        147.1320   147.8300   121.8000 os         1 J9O      -0.328100
     39 Cl1        157.9480   145.3770   115.8170 cl         1 J9O      -0.201000
     40 H1         147.8330   150.3190   118.4090 h1         1 J9O       0.068700
     41 H2         147.8840   145.7480   119.9570 h1         1 J9O       0.060700
     42 H3         147.6980   144.8020   118.4760 h1         1 J9O       0.060700
     43 H4         152.2620   145.3450   119.6270 h1         1 J9O       0.059700
     44 H5         152.2490   143.6070   119.2500 h1         1 J9O       0.059700
     45 H6         142.3330   149.1590   117.4360 ha         1 J9O       0.131000
     46 H7         142.4170   150.3470   122.2630 ha         1 J9O       0.135000
     47 H8         140.2460   150.0100   121.1090 ha         1 J9O       0.118000
     48 H9         147.3680   146.7670   117.1280 h1         1 J9O       0.047700
     49 H10        146.3230   146.9110   118.5480 h1         1 J9O       0.047700
     50 H11        149.9050   149.1870   118.3400 h1         1 J9O       0.047700
     51 H12        149.4880   148.0950   117.0110 h1         1 J9O       0.047700
     52 H13        151.2310   147.0700   118.3120 h1         1 J9O       0.060700
     53 H14        150.3830   147.3570   119.8360 h1         1 J9O       0.060700
     54 H15        146.5060   150.5140   116.3830 hc         1 J9O       0.048700
     55 H16        147.9720   149.5730   116.0920 hc         1 J9O       0.048700
     56 H17        146.4050   148.7490   116.2280 hc         1 J9O       0.048700
     57 H18        147.6050   152.1420   120.3750 ha         1 J9O       0.122000
     58 H19        140.2010   149.4140   118.6870 ha         1 J9O       0.116000
     59 H20        149.5570   148.3470   122.9460 ha         1 J9O       0.119000
     60 H21        149.7960   152.3940   121.5230 ha         1 J9O       0.120000
     61 H22        150.7740   150.4850   122.7850 ha         1 J9O       0.113000
     62 H23        148.4840   146.4720   122.6800 h1         1 J9O       0.050200
     63 H24        146.8360   145.8770   122.4520 h1         1 J9O       0.050200
     64 H25        153.0820   145.4400   115.1670 ha         1 J9O       0.127500
     65 H26        154.4770   144.5500   119.1700 ha         1 J9O       0.127500
     66 H27        147.1730   146.3810   124.8470 hc         1 J9O       0.050033
     67 H28        147.6240   148.0570   124.4790 hc         1 J9O       0.050033
     68 H29        145.9660   147.4920   124.1660 hc         1 J9O       0.050033
     69 H30        155.4480   145.6550   114.4040 ha         1 J9O       0.130500
     70 H31        156.8170   144.7680   118.3990 ha         1 J9O       0.130500
@<TRIPOS>BOND
     1     1     3 1   
     2     1    14 1   
     3     1    31 1   
     4     1    40 1   
     5     2    11 1   
     6     2    32 1   
     7     2    41 1   
     8     2    42 1   
     9     3    33 1   
    10     3    34 2   
    11     4     5 1   
    12     4    32 1   
    13     4    35 2   
    14     5    36 1   
    15     5    43 1   
    16     5    44 1   
    17     6     7 ar  
    18     6     8 ar  
    19     6    34 1   
    20     7     9 ar  
    21     7    15 1   
    22     8    19 ar  
    23     8    45 1   
    24     9    10 ar  
    25     9    46 1   
    26    10    19 ar  
    27    10    47 1   
    28    11    31 1   
    29    11    48 1   
    30    11    49 1   
    31    12    13 1   
    32    12    31 1   
    33    12    50 1   
    34    12    51 1   
    35    13    32 1   
    36    13    52 1   
    37    13    53 1   
    38    14    54 1   
    39    14    55 1   
    40    14    56 1   
    41    15    33 1   
    42    15    37 2   
    43    16    17 ar  
    44    16    18 ar  
    45    16    33 1   
    46    17    20 ar  
    47    17    38 1   
    48    18    21 ar  
    49    18    57 1   
    50    19    58 1   
    51    20    22 ar  
    52    20    59 1   
    53    21    22 ar  
    54    21    60 1   
    55    22    61 1   
    56    23    25 ar  
    57    23    26 ar  
    58    23    36 1   
    59    24    27 1   
    60    24    38 1   
    61    24    62 1   
    62    24    63 1   
    63    25    28 ar  
    64    25    64 1   
    65    26    29 ar  
    66    26    65 1   
    67    27    66 1   
    68    27    67 1   
    69    27    68 1   
    70    28    30 ar  
    71    28    69 1   
    72    29    30 ar  
    73    29    70 1   
    74    30    39 1   
@<TRIPOS>SUBSTRUCTURE
     1 J9O         1 TEMP              0 ****  ****    0 ROOT
