@<TRIPOS>MOLECULE
J9P
   61    61     1     0     0
SMALL
bcc


@<TRIPOS>ATOM
      1 C01          9.1370    -3.2690    -0.4300 c3         1 J9P      -0.088100
      2 C02          7.6420    -3.2220    -0.7130 c3         1 J9P      -0.077400
      3 C03          6.9660    -1.9950    -0.1110 c3         1 J9P      -0.072400
      4 C04          5.4700    -1.9580    -0.3990 c3         1 J9P      -0.104400
      5 C05          4.6910    -0.8090     0.2570 c3         1 J9P       0.166800
      6 C06          5.2010     0.5470    -0.2110 c3         1 J9P      -0.081100
      7 C07          3.1960    -0.9740    -0.0970 c3         1 J9P      -0.070200
      8 C08          2.3230     0.0730     0.5130 c2         1 J9P      -0.141200
      9 C09          1.6660     0.9990    -0.1760 c2         1 J9P      -0.159200
     10 C10          0.8550     2.0930     0.4250 c5         1 J9P      -0.025500
     11 C11          1.4070     3.4880     0.1150 c5         1 J9P       0.151100
     12 C12          0.2500     4.4160     0.4790 c5         1 J9P      -0.237400
     13 C13         -0.9930     3.6020     0.1980 c          1 J9P       0.577100
     14 C15         -0.5890     2.1680    -0.0920 c5         1 J9P      -0.164700
     15 C16         -1.5280     1.0990     0.4560 c3         1 J9P      -0.054400
     16 C17         -2.7860     0.8780    -0.3770 c3         1 J9P      -0.077400
     17 C18         -3.6980    -0.1950     0.2040 c3         1 J9P      -0.073400
     18 C19         -4.9440    -0.4380    -0.6380 c3         1 J9P      -0.079400
     19 C20         -5.8860    -1.4780    -0.0430 c3         1 J9P      -0.053400
     20 C21         -7.1200    -1.7090    -0.8980 c3         1 J9P      -0.203400
     21 C22         -8.1410    -2.7270    -0.3610 c          1 J9P       0.926600
     22 O14         -2.1230     4.0280     0.2260 o          1 J9P      -0.501100
     23 O23         -9.1550    -2.9100    -1.0700 o          1 J9P      -0.849300
     24 O24         -7.8920    -3.2900     0.7230 o          1 J9P      -0.849300
     25 O25          2.5950     3.7080     0.8260 oh         1 J9P      -0.581800
     26 O26          4.8570    -0.8340     1.6690 oh         1 J9P      -0.594800
     27 H1           9.6020    -4.1500    -0.8750 hc         1 J9P       0.030033
     28 H2           9.6440    -2.3890    -0.8310 hc         1 J9P       0.030033
     29 H3           9.3330    -3.2990     0.6440 hc         1 J9P       0.030033
     30 H4           7.4730    -3.2360    -1.7940 hc         1 J9P       0.035200
     31 H5           7.1670    -4.1260    -0.3200 hc         1 J9P       0.035200
     32 H6           7.1360    -1.9860     0.9700 hc         1 J9P       0.044700
     33 H7           7.4500    -1.0960    -0.5050 hc         1 J9P       0.044700
     34 H8           5.3100    -1.9130    -1.4810 hc         1 J9P       0.040200
     35 H9           5.0250    -2.9070    -0.0710 hc         1 J9P       0.040200
     36 H10          5.0980     0.6360    -1.2930 hc         1 J9P       0.044700
     37 H11          4.6360     1.3630     0.2420 hc         1 J9P       0.044700
     38 H12          6.2540     0.6850     0.0360 hc         1 J9P       0.044700
     39 H13          3.0850    -0.9660    -1.1840 hc         1 J9P       0.047700
     40 H14          2.8750    -1.9670     0.2410 hc         1 J9P       0.047700
     41 H15          2.2530     0.0810     1.5980 ha         1 J9P       0.129000
     42 H16          1.7350     1.0040    -1.2640 ha         1 J9P       0.112000
     43 H17          0.8300     1.9760     1.5170 hc         1 J9P       0.071700
     44 H18          1.5830     3.5550    -0.9700 h1         1 J9P       0.030700
     45 H19          0.2710     4.6260     1.5550 hc         1 J9P       0.077200
     46 H20          0.2420     5.3740    -0.0440 hc         1 J9P       0.077200
     47 H21         -0.5560     2.0870    -1.1900 hc         1 J9P       0.072700
     48 H22         -0.9700     0.1580     0.5100 hc         1 J9P       0.044200
     49 H23         -1.7990     1.3470     1.4870 hc         1 J9P       0.044200
     50 H24         -3.3420     1.8130    -0.4670 hc         1 J9P       0.040700
     51 H25         -2.4940     0.5950    -1.3950 hc         1 J9P       0.040700
     52 H26         -3.1400    -1.1330     0.3080 hc         1 J9P       0.033700
     53 H27         -3.9960     0.0940     1.2180 hc         1 J9P       0.033700
     54 H28         -5.4830     0.5080    -0.7660 hc         1 J9P       0.025200
     55 H29         -4.6450    -0.7500    -1.6450 hc         1 J9P       0.025200
     56 H30         -5.3440    -2.4200     0.0900 hc         1 J9P       0.037700
     57 H31         -6.1850    -1.1600     0.9600 hc         1 J9P       0.037700
     58 H32         -7.6400    -0.7560    -1.0550 hc         1 J9P       0.014700
     59 H33         -6.8180    -2.0300    -1.9020 hc         1 J9P       0.014700
     60 H35          2.9810     4.5350     0.5230 ho         1 J9P       0.401000
     61 H36          4.5680    -1.6950     1.9900 ho         1 J9P       0.399000
@<TRIPOS>BOND
     1     1     2 1   
     2     1    27 1   
     3     1    28 1   
     4     1    29 1   
     5     2     3 1   
     6     2    30 1   
     7     2    31 1   
     8     3     4 1   
     9     3    32 1   
    10     3    33 1   
    11     4     5 1   
    12     4    34 1   
    13     4    35 1   
    14     5     6 1   
    15     5     7 1   
    16     5    26 1   
    17     6    36 1   
    18     6    37 1   
    19     6    38 1   
    20     7     8 1   
    21     7    39 1   
    22     7    40 1   
    23     8     9 2   
    24     8    41 1   
    25     9    10 1   
    26     9    42 1   
    27    10    11 1   
    28    10    14 1   
    29    10    43 1   
    30    11    12 1   
    31    11    25 1   
    32    11    44 1   
    33    12    13 1   
    34    12    45 1   
    35    12    46 1   
    36    13    14 1   
    37    13    22 2   
    38    14    15 1   
    39    14    47 1   
    40    15    16 1   
    41    15    48 1   
    42    15    49 1   
    43    16    17 1   
    44    16    50 1   
    45    16    51 1   
    46    17    18 1   
    47    17    52 1   
    48    17    53 1   
    49    18    19 1   
    50    18    54 1   
    51    18    55 1   
    52    19    20 1   
    53    19    56 1   
    54    19    57 1   
    55    20    21 1   
    56    20    58 1   
    57    20    59 1   
    58    21    23 1   
    59    21    24 1   
    60    25    60 1   
    61    26    61 1   
@<TRIPOS>SUBSTRUCTURE
     1 J9P         1 TEMP              0 ****  ****    0 ROOT
