@<TRIPOS>MOLECULE
J9P
   61    61     1     0     0
SMALL
No Charge or Current Charge


@<TRIPOS>ATOM
      1 C01          9.2070    -3.5850     0.0640 c3         1 J9P      -0.088100
      2 C02          7.9580    -3.1330    -0.7170 c3         1 J9P      -0.077400
      3 C03          7.0300    -2.2120     0.1050 c3         1 J9P      -0.072400
      4 C04          5.7780    -1.7550    -0.6910 c3         1 J9P      -0.104400
      5 C05          4.7440    -0.8780     0.0820 c3         1 J9P       0.190000
      6 C06          5.3810     0.4320     0.6150 c3         1 J9P      -0.081100
      7 C07          3.5300    -0.5640    -0.8450 c3         1 J9P      -0.070200
      8 C08          2.4250     0.2480    -0.1890 c2         1 J9P      -0.191200
      9 C09          2.0240     1.4670    -0.5860 c2         1 J9P      -0.209200
     10 C10          0.9040     2.1720     0.1760 c5         1 J9P      -0.025500
     11 C11          1.1080     3.7280     0.1320 c5         1 J9P       0.174300
     12 C12         -0.3480     4.2110     0.2790 c5         1 J9P      -0.237400
     13 C13         -1.0220     3.3670    -0.7920 c          1 J9P       0.577100
     14 C15         -0.4570     1.9510    -0.5770 c5         1 J9P      -0.164700
     15 C16         -1.4410     1.0330     0.1970 c3         1 J9P      -0.054400
     16 C17         -2.7820     0.7740    -0.5270 c3         1 J9P      -0.077400
     17 C18         -3.7150    -0.1790     0.2530 c3         1 J9P      -0.073400
     18 C19         -5.0550    -0.4380    -0.4690 c3         1 J9P      -0.079400
     19 C20         -5.9890    -1.3910     0.3110 c3         1 J9P      -0.053400
     20 C21         -7.3330    -1.6520    -0.4100 c3         1 J9P      -0.203400
     21 C22         -8.2080    -2.6070     0.4240 c          1 J9P       0.716000
     22 O14         -1.5430     3.7750    -1.8210 o          1 J9P      -0.501100
     23 O23         -8.9550    -2.1230     1.2610 o          1 J9P      -0.744000
     24 O24         -8.0820    -3.8090     0.2450 o          1 J9P      -0.744000
     25 O25          1.9210     4.2020     1.1980 oh         1 J9P      -0.644000
     26 O26          4.2680    -1.6280     1.2040 oh         1 J9P      -0.657000
     27 H1           9.8320    -4.2360    -0.5590 hc         1 J9P       0.030033
     28 H2           9.8080    -2.7200     0.3690 hc         1 J9P       0.030033
     29 H3           8.9210    -4.1430     0.9640 hc         1 J9P       0.030033
     30 H4           8.2770    -2.6100    -1.6270 hc         1 J9P       0.035200
     31 H5           7.3990    -4.0210    -1.0380 hc         1 J9P       0.035200
     32 H6           6.7190    -2.7410     1.0140 hc         1 J9P       0.044700
     33 H7           7.6060    -1.3350     0.4240 hc         1 J9P       0.044700
     34 H8           6.1160    -1.2010    -1.5760 hc         1 J9P       0.040200
     35 H9           5.2680    -2.6490    -1.0720 hc         1 J9P       0.040200
     36 H10          5.8050     1.0190    -0.2080 hc         1 J9P       0.044700
     37 H11          4.6390     1.0540     1.1280 hc         1 J9P       0.044700
     38 H12          6.1800     0.2240     1.3350 hc         1 J9P       0.044700
     39 H13          3.8990    -0.0370    -1.7340 hc         1 J9P       0.047700
     40 H14          3.1060    -1.5060    -1.2150 hc         1 J9P       0.047700
     41 H15          1.9560    -0.2420     0.6670 ha         1 J9P       0.179000
     42 H16          2.5000     1.9460    -1.4430 ha         1 J9P       0.162000
     43 H17          0.8430     1.8230     1.2150 hc         1 J9P       0.071700
     44 H18          1.5200     4.0470    -0.8370 h1         1 J9P       0.030700
     45 H19         -0.7170     3.9190     1.2690 hc         1 J9P       0.077200
     46 H20         -0.4830     5.2810     0.0950 hc         1 J9P       0.077200
     47 H21         -0.3190     1.5000    -1.5670 hc         1 J9P       0.072700
     48 H22         -0.9560     0.0660     0.3820 hc         1 J9P       0.044200
     49 H23         -1.6520     1.4630     1.1850 hc         1 J9P       0.044200
     50 H24         -3.3020     1.7260    -0.6870 hc         1 J9P       0.040700
     51 H25         -2.5800     0.3470    -1.5170 hc         1 J9P       0.040700
     52 H26         -3.2010    -1.1350     0.4130 hc         1 J9P       0.033700
     53 H27         -3.9160     0.2460     1.2450 hc         1 J9P       0.033700
     54 H28         -5.5690     0.5190    -0.6280 hc         1 J9P       0.025200
     55 H29         -4.8530    -0.8630    -1.4600 hc         1 J9P       0.025200
     56 H30         -5.4740    -2.3470     0.4720 hc         1 J9P       0.037700
     57 H31         -6.1880    -0.9660     1.3030 hc         1 J9P       0.037700
     58 H32         -7.8180    -0.6730    -0.5060 hc         1 J9P       0.014700
     59 H33         -7.0740    -2.1120    -1.3720 hc         1 J9P       0.014700
     60 H35          1.9740     5.1780     1.1020 ho         1 J9P       0.440000
     61 H36          3.9270    -2.4770     0.8520 ho         1 J9P       0.438000
@<TRIPOS>BOND
     1     1     2 1   
     2     1    27 1   
     3     1    28 1   
     4     1    29 1   
     5     2     3 1   
     6     2    30 1   
     7     2    31 1   
     8     3     4 1   
     9     3    32 1   
    10     3    33 1   
    11     4     5 1   
    12     4    34 1   
    13     4    35 1   
    14     5     6 1   
    15     5     7 1   
    16     5    26 1   
    17     6    36 1   
    18     6    37 1   
    19     6    38 1   
    20     7     8 1   
    21     7    39 1   
    22     7    40 1   
    23     8     9 2   
    24     8    41 1   
    25     9    10 1   
    26     9    42 1   
    27    10    11 1   
    28    10    14 1   
    29    10    43 1   
    30    11    12 1   
    31    11    25 1   
    32    11    44 1   
    33    12    13 1   
    34    12    45 1   
    35    12    46 1   
    36    13    14 1   
    37    13    22 2   
    38    14    15 1   
    39    14    47 1   
    40    15    16 1   
    41    15    48 1   
    42    15    49 1   
    43    16    17 1   
    44    16    50 1   
    45    16    51 1   
    46    17    18 1   
    47    17    52 1   
    48    17    53 1   
    49    18    19 1   
    50    18    54 1   
    51    18    55 1   
    52    19    20 1   
    53    19    56 1   
    54    19    57 1   
    55    20    21 1   
    56    20    58 1   
    57    20    59 1   
    58    21    23 1   
    59    21    24 1   
    60    25    60 1   
    61    26    61 1   
@<TRIPOS>SUBSTRUCTURE
     1 J9P         1 TEMP              0 ****  ****    0 ROOT
