@<TRIPOS>MOLECULE
J9Q
   20    21     1     0     0
SMALL
No Charge or Current Charge


@<TRIPOS>ATOM
      1 C10          2.4520     1.5030    -0.1060 ca         1 J9Q      -0.162000
      2 N12          0.5610    -2.2010     0.2570 nv         1 J9Q      -1.077000
      3 O01         -1.8510    -0.8240    -0.4200 os         1 J9Q      -0.281000
      4 C02         -3.1280    -0.3820    -0.2090 cc         1 J9Q       0.426900
      5 N03         -3.2110     0.8230     0.3530 nd         1 J9Q      -0.670000
      6 C04         -1.8930     1.2070     0.5260 cd         1 J9Q       0.224900
      7 C05         -1.0950     0.1960     0.0570 cc         1 J9Q       0.181500
      8 C06          0.3770     0.2090     0.0330 ca         1 J9Q      -0.201500
      9 C07          1.1480    -0.9740     0.1260 ca         1 J9Q       0.337000
     10 C08          2.5490    -0.9100     0.1020 ca         1 J9Q      -0.194000
     11 C09          3.2050     0.3240    -0.0140 ca         1 J9Q      -0.052000
     12 C11          1.0490     1.4480    -0.0810 ca         1 J9Q      -0.046000
     13 H1           2.9560     2.4630    -0.1970 ha         1 J9Q       0.119000
     14 H2          -0.4350    -2.2710     0.0590 hn         1 J9Q       0.461500
     15 H3           1.1210    -3.0380     0.1100 hn         1 J9Q       0.461500
     16 H5          -1.6110     2.1550     0.9670 h4         1 J9Q       0.050100
     17 H6           3.1370    -1.8210     0.1780 ha         1 J9Q       0.112000
     18 H7           4.2930     0.3670    -0.0320 ha         1 J9Q       0.113000
     19 H8           0.4880     2.3760    -0.1630 ha         1 J9Q       0.115000
     20 H4          -3.9490    -1.0250    -0.5060 h5         1 J9Q       0.081100
@<TRIPOS>BOND
     1     1    11 ar  
     2     1    12 ar  
     3     1    13 1   
     4     2     9 1   
     5     2    14 1   
     6     2    15 1   
     7     3     4 1   
     8     3     7 1   
     9     4     5 2   
    10     4    20 1   
    11     5     6 1   
    12     6     7 2   
    13     6    16 1   
    14     7     8 1   
    15     8     9 ar  
    16     8    12 ar  
    17     9    10 ar  
    18    10    11 ar  
    19    10    17 1   
    20    11    18 1   
    21    12    19 1   
@<TRIPOS>SUBSTRUCTURE
     1 J9Q         1 TEMP              0 ****  ****    0 ROOT
