@<TRIPOS>MOLECULE
J9Q
   20    21     1     0     0
SMALL
abcg2


@<TRIPOS>ATOM
      1 C10          2.4560     1.4980    -0.1470 ca         1 J9Q      -0.162000
      2 N12          0.5330    -2.1930     0.3630 nv         1 J9Q      -1.077000
      3 O01         -1.8170    -0.6990    -0.4800 os         1 J9Q      -0.281000
      4 C02         -3.0900    -0.3440    -0.2640 cc         1 J9Q       0.426900
      5 N03         -3.2180     0.7580     0.3810 nd         1 J9Q      -0.670000
      6 C04         -1.9270     1.1730     0.6250 cd         1 J9Q       0.224900
      7 C05         -1.0600     0.2770     0.0930 cc         1 J9Q       0.181500
      8 C06          0.3930     0.2240     0.0150 ca         1 J9Q      -0.201500
      9 C07          1.1270    -0.9760     0.1340 ca         1 J9Q       0.337000
     10 C08          2.5270    -0.8960     0.0950 ca         1 J9Q      -0.194000
     11 C09          3.1790     0.3150    -0.0370 ca         1 J9Q      -0.052000
     12 C11          1.0750     1.4360    -0.1270 ca         1 J9Q      -0.046000
     13 H1           2.9590     2.4480    -0.2630 ha         1 J9Q       0.119000
     14 H2          -0.3940    -2.3480     0.0070 hn         1 J9Q       0.461500
     15 H3           1.1270    -2.9950     0.2280 hn         1 J9Q       0.461500
     16 H5          -1.7040     2.0750     1.1720 h4         1 J9Q       0.050100
     17 H6           3.1040    -1.8090     0.1790 ha         1 J9Q       0.112000
     18 H7           4.2610     0.3340    -0.0610 ha         1 J9Q       0.113000
     19 H8           0.4960     2.3450    -0.2360 ha         1 J9Q       0.115000
     20 H4          -3.8620    -0.9990    -0.6370 h5         1 J9Q       0.081100
@<TRIPOS>BOND
     1     1    11 ar  
     2     1    12 ar  
     3     1    13 1   
     4     2     9 1   
     5     2    14 1   
     6     2    15 1   
     7     3     4 1   
     8     3     7 1   
     9     4     5 2   
    10     4    20 1   
    11     5     6 1   
    12     6     7 2   
    13     6    16 1   
    14     7     8 1   
    15     8     9 ar  
    16     8    12 ar  
    17     9    10 ar  
    18    10    11 ar  
    19    10    17 1   
    20    11    18 1   
    21    12    19 1   
@<TRIPOS>SUBSTRUCTURE
     1 J9Q         1 TEMP              0 ****  ****    0 ROOT
