@<TRIPOS>MOLECULE
J9R
   50    53     1     0     0
SMALL
bcc


@<TRIPOS>ATOM
      1 N1          17.3850   -48.0080    39.7130 nt         1 J9R      -0.654000
      2 N3          16.3120   -53.0140    46.0050 n3         1 J9R      -0.711600
      3 C4          14.6280   -47.2070    41.9990 ca         1 J9R      -0.213300
      4 C5          15.6800   -47.9060    41.3890 ca         1 J9R       0.378800
      5 C6          16.4020   -47.2680    40.2300 c          1 J9R       0.576600
      6 C7          15.4430   -49.6810    42.8030 ca         1 J9R       0.398600
      7 C8          15.8750   -50.9710    43.1930 ca         1 J9R      -0.166300
      8 C13         18.3640   -52.6970    47.2910 c6         1 J9R       0.072100
      9 C15         17.5330   -52.2220    46.0890 c6         1 J9R       0.139800
     10 C17         13.8680   -49.7080    44.6520 ca         1 J9R      -0.112000
     11 N           11.5520   -45.4290    44.3800 na         1 J9R       0.117400
     12 C           11.0110   -44.1470    44.7630 c3         1 J9R       0.041600
     13 O           16.0830   -46.1580    39.8280 o          1 J9R      -0.609100
     14 C1          12.7610   -45.6810    43.8640 cc         1 J9R      -0.108300
     15 C11         16.5210   -54.3590    46.5020 c6         1 J9R       0.126800
     16 C12         16.8070   -54.2860    47.9990 c6         1 J9R       0.140400
     17 C14         19.2500   -51.5990    47.8480 c3         1 J9R       0.673900
     18 C16         14.3210   -50.9440    45.0160 ca         1 J9R      -0.103000
     19 C18         14.3950   -49.0450    43.5180 ca         1 J9R      -0.121300
     20 C19         11.5890   -47.5190    44.1100 cd         1 J9R       0.327200
     21 C2          12.8440   -47.0490    43.6710 cd         1 J9R      -0.248300
     22 C3          13.9590   -47.7680    43.0630 ca         1 J9R       0.065000
     23 C9          15.3200   -51.6090    44.2670 ca         1 J9R      -0.079300
     24 F           18.5530   -50.6200    48.4330 f          1 J9R      -0.229967
     25 F1          19.9770   -51.0410    46.8720 f          1 J9R      -0.229967
     26 F2          20.1030   -52.0710    48.7630 f          1 J9R      -0.229967
     27 N2          16.0640   -49.1000    41.7570 nb         1 J9R      -0.677000
     28 N4          10.8230   -46.5320    44.5290 nc         1 J9R      -0.523800
     29 O1          17.5410   -53.1180    48.3360 os         1 J9R      -0.376600
     30 H1          17.9280   -47.6700    38.9350 hn         1 J9R       0.327500
     31 H2          17.5910   -48.9170    40.0930 hn         1 J9R       0.327500
     32 H4          14.3320   -46.2450    41.6060 ha         1 J9R       0.165000
     33 H5          16.6640   -51.4380    42.6150 ha         1 J9R       0.143000
     34 H6          14.8820   -53.6510    44.6580 h1         1 J9R       0.042200
     35 H7          16.4610   -53.3850    43.9200 h1         1 J9R       0.042200
     36 H8          19.0410   -53.5020    46.9660 h1         1 J9R       0.060700
     37 H9          18.1490   -52.3230    45.1840 h1         1 J9R       0.059700
     38 H10         17.2650   -51.1660    46.1770 h1         1 J9R       0.059700
     39 H11         13.1100   -49.2270    45.2540 ha         1 J9R       0.145000
     40 H12         10.1160   -43.9270    44.1840 h1         1 J9R       0.059367
     41 H13         10.7620   -44.1440    45.8220 h1         1 J9R       0.059367
     42 H14         11.7550   -43.3790    44.5710 h1         1 J9R       0.059367
     43 H15         13.4820   -44.8980    43.6860 h4         1 J9R       0.179000
     44 H16         15.6150   -54.9480    46.3490 h1         1 J9R       0.042700
     45 H17         17.3270   -54.8860    45.9670 h1         1 J9R       0.042700
     46 H18         15.8730   -54.2300    48.5600 h1         1 J9R       0.056200
     47 H19         17.3440   -55.1850    48.3210 h1         1 J9R       0.056200
     48 H20         13.9100   -51.4290    45.8930 ha         1 J9R       0.146000
     49 H21         11.2130   -48.5320    44.1040 h4         1 J9R       0.043100
     50 C10         15.7550   -52.9910    44.6690 c3         1 J9R       0.215100
@<TRIPOS>BOND
     1     1     5 1   
     2     1    30 1   
     3     1    31 1   
     4     2     9 1   
     5     2    15 1   
     6     2    50 1   
     7     3     4 ar  
     8     3    22 ar  
     9     3    32 1   
    10     4     5 1   
    11     4    27 ar  
    12     5    13 2   
    13     6     7 ar  
    14     6    19 ar  
    15     6    27 ar  
    16     7    23 ar  
    17     7    33 1   
    18     8     9 1   
    19     8    17 1   
    20     8    29 1   
    21     8    36 1   
    22     9    37 1   
    23     9    38 1   
    24    10    18 ar  
    25    10    19 ar  
    26    10    39 1   
    27    11    12 1   
    28    11    14 1   
    29    11    28 1   
    30    12    40 1   
    31    12    41 1   
    32    12    42 1   
    33    14    21 2   
    34    14    43 1   
    35    15    16 1   
    36    15    44 1   
    37    15    45 1   
    38    16    29 1   
    39    16    46 1   
    40    16    47 1   
    41    17    24 1   
    42    17    25 1   
    43    17    26 1   
    44    18    23 ar  
    45    18    48 1   
    46    19    22 ar  
    47    20    21 1   
    48    20    28 2   
    49    20    49 1   
    50    21    22 1   
    51    23    50 1   
    52    34    50 1   
    53    35    50 1   
@<TRIPOS>SUBSTRUCTURE
     1 J9R         1 TEMP              0 ****  ****    0 ROOT
