@<TRIPOS>MOLECULE
J9R
   50    53     1     0     0
SMALL
No Charge or Current Charge


@<TRIPOS>ATOM
      1 N1          17.4020   -48.0350    39.6110 nt         1 J9R      -0.587000
      2 N3          16.2940   -53.1970    45.9780 n3         1 J9R      -0.711600
      3 C4          14.7620   -47.1720    42.1350 ca         1 J9R      -0.130000
      4 C5          15.7350   -47.9120    41.4420 ca         1 J9R       0.313500
      5 C6          16.4770   -47.2760    40.2540 c          1 J9R       0.509600
      6 C7          15.3890   -49.7590    42.8420 ca         1 J9R       0.268000
      7 C8          15.7360   -51.0750    43.2010 ca         1 J9R      -0.083000
      8 C13         18.3680   -52.5390    47.3300 c6         1 J9R       0.095300
      9 C15         17.5600   -52.3940    45.9910 c6         1 J9R       0.139800
     10 C17         13.8580   -49.6940    44.7430 ca         1 J9R      -0.094000
     11 N           11.6300   -45.3000    44.3680 na         1 J9R       0.138800
     12 C           11.0510   -43.9690    44.5950 c3         1 J9R       0.070900
     13 O           16.2810   -46.1330    39.8620 o          1 J9R      -0.609100
     14 C1          12.8570   -45.5750    43.7760 cc         1 J9R      -0.141000
     15 C11         16.5290   -54.5960    46.4510 c6         1 J9R       0.126800
     16 C12         17.3100   -54.6620    47.8050 c6         1 J9R       0.163600
     17 C14         18.7260   -51.1620    47.9750 c3         1 J9R       0.310000
     18 C16         14.2230   -51.0050    45.0880 ca         1 J9R      -0.085000
     19 C18         14.4050   -49.0650    43.5980 ca         1 J9R      -0.056000
     20 C19         11.7370   -47.4010    44.3610 cd         1 J9R       0.261900
     21 C2          12.9680   -46.9410    43.8270 cd         1 J9R      -0.183000
     22 C3          14.0510   -47.7430    43.2070 ca         1 J9R       0.065000
     23 C9          15.1530   -51.7100    44.3110 ca         1 J9R      -0.079300
     24 F           17.6220   -50.4560    48.3160 f          1 J9R      -0.108667
     25 F1          19.4490   -50.3930    47.1280 f          1 J9R      -0.108667
     26 F2          19.4660   -51.3170    49.0980 f          1 J9R      -0.108667
     27 N2          16.0260   -49.1960    41.7910 nb         1 J9R      -0.677000
     28 N4          10.9230   -46.4270    44.7190 nc         1 J9R      -0.523800
     29 O1          17.6350   -53.3390    48.2970 os         1 J9R      -0.423000
     30 H1          17.9100   -47.6540    38.8270 hn         1 J9R       0.327500
     31 H2          17.5690   -48.9800    39.9300 hn         1 J9R       0.327500
     32 H4          14.5360   -46.1650    41.8010 ha         1 J9R       0.147000
     33 H5          16.4810   -51.6020    42.6120 ha         1 J9R       0.125000
     34 H6          14.6400   -53.7330    44.7650 h1         1 J9R       0.042200
     35 H7          16.1620   -53.5670    43.8900 h1         1 J9R       0.042200
     36 H8          19.3140   -53.0540    47.1080 h1         1 J9R       0.060700
     37 H9          18.2140   -52.7030    45.1620 h1         1 J9R       0.059700
     38 H10         17.3290   -51.3320    45.8200 h1         1 J9R       0.059700
     39 H11         13.1800   -49.1740    45.4090 ha         1 J9R       0.127000
     40 H12         10.1830   -43.8310    43.9400 h1         1 J9R       0.059367
     41 H13         10.7370   -43.8780    45.6410 h1         1 J9R       0.059367
     42 H14         11.7980   -43.1970    44.3730 h1         1 J9R       0.059367
     43 H15         13.5160   -44.8020    43.4000 h4         1 J9R       0.161000
     44 H16         15.5700   -55.1190    46.5740 h1         1 J9R       0.042700
     45 H17         17.0980   -55.1590    45.6960 h1         1 J9R       0.042700
     46 H18         16.7020   -55.1800    48.5590 h1         1 J9R       0.056200
     47 H19         18.2380   -55.2360    47.6700 h1         1 J9R       0.056200
     48 H20         13.7940   -51.4690    45.9740 ha         1 J9R       0.128000
     49 H21         11.3920   -48.4210    44.4690 h4         1 J9R       0.043100
     50 C10         15.5550   -53.1300    44.6960 c3         1 J9R       0.215100
@<TRIPOS>BOND
     1     1     5 1   
     2     1    30 1   
     3     1    31 1   
     4     2     9 1   
     5     2    15 1   
     6     2    50 1   
     7     3     4 ar  
     8     3    22 ar  
     9     3    32 1   
    10     4     5 1   
    11     4    27 ar  
    12     5    13 2   
    13     6     7 ar  
    14     6    19 ar  
    15     6    27 ar  
    16     7    23 ar  
    17     7    33 1   
    18     8     9 1   
    19     8    17 1   
    20     8    29 1   
    21     8    36 1   
    22     9    37 1   
    23     9    38 1   
    24    10    18 ar  
    25    10    19 ar  
    26    10    39 1   
    27    11    12 1   
    28    11    14 1   
    29    11    28 1   
    30    12    40 1   
    31    12    41 1   
    32    12    42 1   
    33    14    21 2   
    34    14    43 1   
    35    15    16 1   
    36    15    44 1   
    37    15    45 1   
    38    16    29 1   
    39    16    46 1   
    40    16    47 1   
    41    17    24 1   
    42    17    25 1   
    43    17    26 1   
    44    18    23 ar  
    45    18    48 1   
    46    19    22 ar  
    47    20    21 1   
    48    20    28 2   
    49    20    49 1   
    50    21    22 1   
    51    23    50 1   
    52    34    50 1   
    53    35    50 1   
@<TRIPOS>SUBSTRUCTURE
     1 J9R         1 TEMP              0 ****  ****    0 ROOT
