@<TRIPOS>MOLECULE
J9S
   59    62     1     0     0
SMALL
abcg2


@<TRIPOS>ATOM
      1 N12         -1.1670    -1.9880     1.2210 n7         1 J9S      -0.834300
      2 C13         -1.7390    -1.0310     0.2810 c3         1 J9S       0.194800
      3 C17         -2.4920     1.3870    -2.4960 c          1 J9S       0.711000
      4 C20         -0.4810     2.5130    -0.2910 c3         1 J9S       0.166300
      5 C21          0.9870     2.6800    -0.0640 cc         1 J9S      -0.208300
      6 C22          1.8760     3.3050    -0.8890 cd         1 J9S      -0.152000
      7 C24          3.2710     2.7930     0.8770 cc         1 J9S      -0.288000
      8 C28         -4.1390    -1.0430    -0.5330 ca         1 J9S       0.201100
      9 C02          5.6670     0.6860    -0.2610 c          1 J9S       0.568200
     10 N03          4.6000     0.3290    -1.0490 ns         1 J9S      -0.363100
     11 C04          3.5310    -0.4160    -0.6510 ca         1 J9S       0.152600
     12 C05          3.4920    -0.9020     0.6660 ca         1 J9S      -0.167800
     13 C06          4.5880    -0.5800     1.5310 cc         1 J9S      -0.066200
     14 C07          5.6200     0.1680     1.0970 cd         1 J9S      -0.314200
     15 C08          2.4100    -1.6800     1.0780 ca         1 J9S       0.063000
     16 C09          1.4040    -1.9800     0.1850 ca         1 J9S      -0.347500
     17 S10          0.0430    -2.9840     0.7010 sy         1 J9S       1.146600
     18 O11          0.4500    -3.7420     1.8710 o          1 J9S      -0.547000
     19 C14         -1.0750     0.3370     0.4730 c          1 J9S       0.569100
     20 N15         -0.8910     1.1440    -0.5730 n          1 J9S      -0.326800
     21 C16         -1.1500     0.8360    -1.9620 c3         1 J9S      -0.061000
     22 O18         -2.6710     1.2100    -3.7160 o          1 J9S      -0.716500
     23 O19         -3.2380     1.9510    -1.6820 o          1 J9S      -0.716500
     24 C23          3.1900     3.3710    -0.3520 cd         1 J9S      -0.142000
     25 S25          1.7650     2.1500     1.3790 ss         1 J9S       0.252000
     26 O26         -0.7710     0.6700     1.6170 o          1 J9S      -0.678100
     27 C27         -3.2270    -0.8740     0.5190 ca         1 J9S      -0.105300
     28 O29         -3.6270    -1.3870    -1.7260 os         1 J9S      -0.334100
     29 C30         -4.4880    -1.4830    -2.8420 c3         1 J9S       0.157900
     30 C31         -5.5030    -0.8770    -0.2990 ca         1 J9S      -0.196000
     31 C32         -5.9570    -0.5560     0.9720 ca         1 J9S      -0.066000
     32 C33         -5.0660    -0.3960     2.0200 ca         1 J9S      -0.169000
     33 C34         -3.7080    -0.5540     1.7810 ca         1 J9S      -0.043000
     34 O35         -0.4620    -3.6670    -0.4790 o          1 J9S      -0.547000
     35 C36          1.4500    -1.5050    -1.1310 ca         1 J9S       0.040000
     36 C37          2.4970    -0.7180    -1.5420 ca         1 J9S      -0.181000
     37 H121        -0.9440    -1.5700     2.1210 hn         1 J9S       0.493000
     38 H131        -1.5980    -1.4250    -0.7210 h1         1 J9S       0.106700
     39 H202        -1.0500     2.8920     0.5580 h1         1 J9S       0.079700
     40 H201        -0.7640     3.1230    -1.1470 h1         1 J9S       0.079700
     41 H221         1.5910     3.7210    -1.8470 ha         1 J9S       0.132000
     42 H241         4.1390     2.7050     1.5110 h4         1 J9S       0.138000
     43 H071         6.4460     0.4150     1.7490 ha         1 J9S       0.202000
     44 H081         2.3870    -2.0480     2.0960 ha         1 J9S       0.135000
     45 H162        -1.1140    -0.2380    -2.1330 h1         1 J9S       0.035700
     46 H161        -0.3250     1.2460    -2.5520 h1         1 J9S       0.035700
     47 H231         4.0300     3.8240    -0.8580 ha         1 J9S       0.125000
     48 H303        -5.2440    -2.2600    -2.7040 h1         1 J9S       0.043033
     49 H302        -4.9800    -0.5320    -3.0540 h1         1 J9S       0.043033
     50 H301        -3.8610    -1.7460    -3.6900 h1         1 J9S       0.043033
     51 H311        -6.2210    -0.9960    -1.0980 ha         1 J9S       0.112000
     52 H321        -7.0210    -0.4340     1.1360 ha         1 J9S       0.095000
     53 H331        -5.4180    -0.1480     3.0120 ha         1 J9S       0.101000
     54 H341        -3.0120    -0.4180     2.6000 ha         1 J9S       0.116000
     55 H361         0.6820    -1.7680    -1.8470 ha         1 J9S       0.147000
     56 H371         2.5310    -0.3510    -2.5600 ha         1 J9S       0.128000
     57 H031         4.6050     0.6830    -1.9960 hn         1 J9S       0.330500
     58 O01          6.5690     1.3840    -0.7020 o          1 J9S      -0.561000
     59 H061         4.5720    -0.9490     2.5490 ha         1 J9S       0.187000
@<TRIPOS>BOND
     1     1     2 1   
     2     1    17 1   
     3     1    37 1   
     4     2    19 1   
     5     2    27 1   
     6     2    38 1   
     7     3    21 1   
     8     3    22 1   
     9     3    23 1   
    10     4     5 1   
    11     4    20 1   
    12     4    39 1   
    13     4    40 1   
    14     5     6 2   
    15     5    25 1   
    16     6    24 1   
    17     6    41 1   
    18     7    24 2   
    19     7    25 1   
    20     7    42 1   
    21     8    27 ar  
    22     8    28 1   
    23     8    30 ar  
    24     9    10 1   
    25     9    14 1   
    26     9    58 2   
    27    10    11 1   
    28    10    57 1   
    29    11    12 ar  
    30    11    36 ar  
    31    12    13 1   
    32    12    15 ar  
    33    13    14 2   
    34    13    59 1   
    35    14    43 1   
    36    15    16 ar  
    37    15    44 1   
    38    16    17 1   
    39    16    35 ar  
    40    17    18 2   
    41    17    34 2   
    42    19    20 1   
    43    19    26 2   
    44    20    21 1   
    45    21    45 1   
    46    21    46 1   
    47    24    47 1   
    48    27    33 ar  
    49    28    29 1   
    50    29    48 1   
    51    29    49 1   
    52    29    50 1   
    53    30    31 ar  
    54    30    51 1   
    55    31    32 ar  
    56    31    52 1   
    57    32    33 ar  
    58    32    53 1   
    59    33    54 1   
    60    35    36 ar  
    61    35    55 1   
    62    36    56 1   
@<TRIPOS>SUBSTRUCTURE
     1 J9S         1 TEMP              0 ****  ****    0 ROOT
