@<TRIPOS>MOLECULE
J9S
   59    62     1     0     0
SMALL
No Charge or Current Charge


@<TRIPOS>ATOM
      1 N12         -1.2610    -1.9440     1.6940 n7         1 J9S      -0.834300
      2 C13         -1.5650    -0.7850     0.7950 c3         1 J9S       0.194800
      3 C17         -1.6620     2.0570    -1.5660 c          1 J9S       0.711000
      4 C20         -0.1300     2.8680     1.3780 c3         1 J9S       0.166300
      5 C21          1.3050     2.8120     1.8250 cc         1 J9S      -0.208300
      6 C22          2.4050     3.3470     1.2030 cd         1 J9S      -0.152000
      7 C24          3.4550     2.3980     3.0570 cc         1 J9S      -0.288000
      8 C28         -3.3730    -1.0530    -1.0060 ca         1 J9S       0.201100
      9 C02          3.6830    -0.0770    -3.5170 c          1 J9S       0.568200
     10 N03          2.8890    -1.1530    -3.2330 ns         1 J9S      -0.363100
     11 C04          2.3060    -1.4530    -1.9960 ca         1 J9S       0.152600
     12 C05          2.5430    -0.5840    -0.9180 ca         1 J9S      -0.167800
     13 C06          3.3840     0.6010    -1.0980 cc         1 J9S      -0.066200
     14 C07          3.9130     0.8140    -2.3610 cd         1 J9S      -0.314200
     15 C08          1.9550    -0.8560     0.3310 ca         1 J9S       0.063000
     16 C09          1.1390    -1.9930     0.4920 ca         1 J9S      -0.347500
     17 S10          0.3270    -2.3100     2.0570 sy         1 J9S       1.146600
     18 O11          0.7570    -1.3310     3.0530 o          1 J9S      -0.547000
     19 C14         -1.2390     0.6110     1.4510 c          1 J9S       0.569100
     20 N15         -0.5310     1.6050     0.7160 n          1 J9S      -0.326800
     21 C16         -0.4110     1.5880    -0.7770 c3         1 J9S      -0.061000
     22 O18         -1.5550     2.1770    -2.7780 o          1 J9S      -0.716500
     23 O19         -2.6790     2.3430    -0.9500 o          1 J9S      -0.716500
     24 C23          3.6200     3.1130     1.8990 cd         1 J9S      -0.142000
     25 S25          1.7590     2.0040     3.3240 ss         1 J9S       0.252000
     26 O26         -1.5550     0.8190     2.6230 o          1 J9S      -0.678100
     27 C27         -3.0320    -0.8610     0.3550 ca         1 J9S      -0.105300
     28 O29         -2.3580    -1.1820    -1.9370 os         1 J9S      -0.334100
     29 C30         -2.6080    -1.3240    -3.3460 c3         1 J9S       0.157900
     30 C31         -4.7340    -1.1170    -1.3860 ca         1 J9S      -0.196000
     31 C32         -5.7470    -0.9920    -0.4230 ca         1 J9S      -0.066000
     32 C33         -5.4100    -0.8050     0.9240 ca         1 J9S      -0.169000
     33 C34         -4.0630    -0.7410     1.3120 ca         1 J9S      -0.043000
     34 O35          0.3380    -3.7520     2.3090 o          1 J9S      -0.547000
     35 C36          0.9160    -2.8650    -0.5910 ca         1 J9S       0.040000
     36 C37          1.5010    -2.5900    -1.8370 ca         1 J9S      -0.181000
     37 H121        -1.6170    -1.7250     2.6230 hn         1 J9S       0.493000
     38 H131        -0.9520    -0.8700    -0.1020 h1         1 J9S       0.106700
     39 H202        -0.7770     3.0810     2.2390 h1         1 J9S       0.079700
     40 H201        -0.2580     3.7020     0.6760 h1         1 J9S       0.079700
     41 H221         2.3520     3.8950     0.2660 ha         1 J9S       0.132000
     42 H241         4.1970     2.0770     3.7770 h4         1 J9S       0.138000
     43 H071         4.5440     1.6690    -2.5740 ha         1 J9S       0.202000
     44 H081         2.1270    -0.1740     1.1630 ha         1 J9S       0.135000
     45 H162        -0.1230     0.5960    -1.1380 h1         1 J9S       0.035700
     46 H161         0.4120     2.2580    -1.0590 h1         1 J9S       0.035700
     47 H231         4.5860     3.4640     1.5480 ha         1 J9S       0.125000
     48 H303        -3.1850    -2.2350    -3.5500 h1         1 J9S       0.043033
     49 H302        -3.1610    -0.4590    -3.7320 h1         1 J9S       0.043033
     50 H301        -1.6590    -1.3930    -3.8930 h1         1 J9S       0.043033
     51 H311        -5.0250    -1.2640    -2.4220 ha         1 J9S       0.112000
     52 H321        -6.7920    -1.0420    -0.7210 ha         1 J9S       0.095000
     53 H331        -6.1950    -0.7100     1.6710 ha         1 J9S       0.101000
     54 H341        -3.8230    -0.5970     2.3630 ha         1 J9S       0.116000
     55 H361         0.2770    -3.7410    -0.4760 ha         1 J9S       0.147000
     56 H371         1.3210    -3.2580    -2.6760 ha         1 J9S       0.128000
     57 H031         2.7090    -1.7890    -3.9970 hn         1 J9S       0.330500
     58 O01          4.1530     0.1140    -4.6270 o          1 J9S      -0.561000
     59 H061         3.5950     1.2900    -0.2840 ha         1 J9S       0.187000
@<TRIPOS>BOND
     1     1     2 1   
     2     1    17 1   
     3     1    37 1   
     4     2    19 1   
     5     2    27 1   
     6     2    38 1   
     7     3    21 1   
     8     3    22 1   
     9     3    23 1   
    10     4     5 1   
    11     4    20 1   
    12     4    39 1   
    13     4    40 1   
    14     5     6 2   
    15     5    25 1   
    16     6    24 1   
    17     6    41 1   
    18     7    24 2   
    19     7    25 1   
    20     7    42 1   
    21     8    27 ar  
    22     8    28 1   
    23     8    30 ar  
    24     9    10 1   
    25     9    14 1   
    26     9    58 2   
    27    10    11 1   
    28    10    57 1   
    29    11    12 ar  
    30    11    36 ar  
    31    12    13 1   
    32    12    15 ar  
    33    13    14 2   
    34    13    59 1   
    35    14    43 1   
    36    15    16 ar  
    37    15    44 1   
    38    16    17 1   
    39    16    35 ar  
    40    17    18 2   
    41    17    34 2   
    42    19    20 1   
    43    19    26 2   
    44    20    21 1   
    45    21    45 1   
    46    21    46 1   
    47    24    47 1   
    48    27    33 ar  
    49    28    29 1   
    50    29    48 1   
    51    29    49 1   
    52    29    50 1   
    53    30    31 ar  
    54    30    51 1   
    55    31    32 ar  
    56    31    52 1   
    57    32    33 ar  
    58    32    53 1   
    59    33    54 1   
    60    35    36 ar  
    61    35    55 1   
    62    36    56 1   
@<TRIPOS>SUBSTRUCTURE
     1 J9S         1 TEMP              0 ****  ****    0 ROOT
