@<TRIPOS>MOLECULE
J9T
   19    19     1     0     0
SMALL
bcc


@<TRIPOS>ATOM
      1 C01          3.8250    -0.1430    -0.0130 c3         1 J9T       0.129700
      2 O02          2.4440    -0.5110     0.0060 os         1 J9T      -0.410900
      3 C03          1.5520     0.4600    -0.0020 c          1 J9T       0.650700
      4 O04          1.8320     1.6330    -0.0220 o          1 J9T      -0.533000
      5 C05          0.1510    -0.0540     0.0170 ca         1 J9T      -0.060600
      6 C06         -0.1490    -1.4190     0.0160 ca         1 J9T      -0.259300
      7 C07         -1.4840    -1.7720     0.0290 ca         1 J9T       0.438200
      8 N08         -2.4900    -0.9040     0.0440 nb         1 J9T      -0.732000
      9 C09         -2.2030     0.3970     0.0500 ca         1 J9T       0.660200
     10 N10         -3.2450     1.2660     0.1140 nv         1 J9T      -0.952500
     11 C11         -0.8760     0.8650     0.0340 ca         1 J9T      -0.266300
     12 H1           4.3800    -1.0760     0.0000 h1         1 J9T       0.050700
     13 H2           4.0720     0.4140    -0.9160 h1         1 J9T       0.050700
     14 H3           4.0890     0.4500     0.8620 h1         1 J9T       0.050700
     15 H4           0.6140    -2.1830     0.0030 ha         1 J9T       0.158000
     16 H5          -1.7630    -2.8200     0.0260 h4         1 J9T       0.020100
     17 H6          -4.1570     0.9090    -0.1150 hn         1 J9T       0.423300
     18 H7          -3.0860     2.2270    -0.1400 hn         1 J9T       0.423300
     19 H8          -0.6780     1.9280     0.0350 ha         1 J9T       0.160000
@<TRIPOS>BOND
     1     1     2 1   
     2     1    12 1   
     3     1    13 1   
     4     1    14 1   
     5     2     3 1   
     6     3     4 2   
     7     3     5 1   
     8     5     6 ar  
     9     5    11 ar  
    10     6     7 ar  
    11     6    15 1   
    12     7     8 ar  
    13     7    16 1   
    14     8     9 ar  
    15     9    10 1   
    16     9    11 ar  
    17    10    17 1   
    18    10    18 1   
    19    11    19 1   
@<TRIPOS>SUBSTRUCTURE
     1 J9T         1 TEMP              0 ****  ****    0 ROOT
