@<TRIPOS>MOLECULE
J9T
   19    19     1     0     0
SMALL
No Charge or Current Charge


@<TRIPOS>ATOM
      1 C01          3.9120    -0.1980    -0.0300 c3         1 J9T       0.152900
      2 O02          2.5130    -0.5410    -0.0110 os         1 J9T      -0.434100
      3 C03          1.5950     0.4810     0.0160 c          1 J9T       0.601700
      4 O04          1.9040     1.6670     0.0250 o          1 J9T      -0.484000
      5 C05          0.1570     0.0050     0.0330 ca         1 J9T      -0.060600
      6 C06         -0.1900    -1.3660     0.0210 ca         1 J9T      -0.176000
      7 C07         -1.5460    -1.7410     0.0370 ca         1 J9T       0.372900
      8 N08         -2.5600    -0.8470     0.0650 nb         1 J9T      -0.732000
      9 C09         -2.2230     0.4350     0.0790 ca         1 J9T       0.594900
     10 N10         -3.3090     1.2140     0.0990 nv         1 J9T      -1.062900
     11 C11         -0.9140     0.9250     0.0620 ca         1 J9T      -0.183000
     12 H1           4.5270    -1.1060    -0.0500 h1         1 J9T       0.050700
     13 H2           4.1570     0.3990    -0.9170 h1         1 J9T       0.050700
     14 H3           4.1860     0.3770     0.8640 h1         1 J9T       0.050700
     15 H4           0.5700    -2.1410    -0.0010 ha         1 J9T       0.140000
     16 H5          -1.8280    -2.7940     0.0280 h4         1 J9T       0.020100
     17 H6          -4.1750     0.7380    -0.1260 hn         1 J9T       0.478500
     18 H7          -3.2150     2.1660    -0.2380 hn         1 J9T       0.478500
     19 H8          -0.7340     1.9950     0.0740 ha         1 J9T       0.142000
@<TRIPOS>BOND
     1     1     2 1   
     2     1    12 1   
     3     1    13 1   
     4     1    14 1   
     5     2     3 1   
     6     3     4 2   
     7     3     5 1   
     8     5     6 ar  
     9     5    11 ar  
    10     6     7 ar  
    11     6    15 1   
    12     7     8 ar  
    13     7    16 1   
    14     8     9 ar  
    15     9    10 1   
    16     9    11 ar  
    17    10    17 1   
    18    10    18 1   
    19    11    19 1   
@<TRIPOS>SUBSTRUCTURE
     1 J9T         1 TEMP              0 ****  ****    0 ROOT
