@<TRIPOS>MOLECULE
J9U
   50    53     1     0     0
SMALL
No Charge or Current Charge


@<TRIPOS>ATOM
      1 N1          18.1850   -47.6540    39.0500 nt         1 J9U      -0.587000
      2 N3          15.4900   -54.8770    39.6010 nc         1 J9U      -0.521800
      3 C4          17.2860   -46.9470    39.7800 c          1 J9U       0.513600
      4 C5          15.5570   -47.0140    41.6500 ca         1 J9U      -0.093000
      5 C6          14.8170   -47.6890    42.6430 cp         1 J9U      -0.011000
      6 C7          13.8110   -46.9470    43.4540 cp         1 J9U      -0.109000
      7 C8          14.2350   -45.9910    44.4080 ca         1 J9U      -0.044000
      8 C10         11.9250   -45.5220    45.0040 ca         1 J9U       0.207000
      9 C13         15.0750   -49.0710    42.8340 ca         1 J9U      -0.071300
     10 C15         14.9300   -51.2940    44.1780 c6         1 J9U       0.174800
     11 C17         15.8530   -54.1170    41.7690 cc         1 J9U      -0.158300
     12 N           16.7380   -49.0330    41.0480 nb         1 J9U      -0.678000
     13 O           17.1430   -45.7550    39.5440 o          1 J9U      -0.609100
     14 C1          16.3980   -51.1920    42.1940 c6         1 J9U       0.135200
     15 C11         11.4830   -46.4560    44.0590 ca         1 J9U      -0.202000
     16 C12         12.4190   -47.1610    43.2890 ca         1 J9U       0.216000
     17 C14         14.3200   -49.9030    43.8860 c6         1 J9U      -0.031100
     18 C18         16.9410   -54.8240    41.3430 cd         1 J9U      -0.228000
     19 C19         16.6760   -55.2620    40.0320 cd         1 J9U       0.236900
     20 C2          16.0460   -49.6940    42.0130 ca         1 J9U       0.357300
     21 C3          16.5020   -47.7020    40.8640 ca         1 J9U       0.288500
     22 C9          13.2960   -45.2840    45.1800 ca         1 J9U      -0.170000
     23 F           11.0250   -44.8410    45.7450 f          1 J9U      -0.168000
     24 F1          11.9700   -48.0430    42.3670 f          1 J9U      -0.166000
     25 N2          15.3310   -51.9670    42.9190 n3         1 J9U      -0.741600
     26 N4          14.9850   -54.1690    40.6780 na         1 J9U       0.149800
     27 H1          18.7210   -47.1960    38.3280 hn         1 J9U       0.327500
     28 H2          18.3060   -48.6390    39.2420 hn         1 J9U       0.327500
     29 H3          15.3870   -45.9540    41.4820 ha         1 J9U       0.153000
     30 H4          15.2980   -45.8040    44.5490 ha         1 J9U       0.129000
     31 H5          14.1830   -51.8950    44.7170 h1         1 J9U       0.037200
     32 H6          15.7930   -51.1820    44.8500 h1         1 J9U       0.037200
     33 H7          13.1120   -53.9360    39.7210 h1         1 J9U       0.060367
     34 H8          13.0850   -53.7750    41.5010 h1         1 J9U       0.060367
     35 H9          13.7670   -52.4620    40.4970 h1         1 J9U       0.060367
     36 H13         16.5020   -51.6030    41.1790 h1         1 J9U       0.091700
     37 H14         10.4200   -46.6310    43.9200 ha         1 J9U       0.153000
     38 H15         14.2440   -49.3440    44.8290 hc         1 J9U       0.064700
     39 H16         13.2900   -50.0520    43.5380 hc         1 J9U       0.064700
     40 H19         17.8480   -55.0140    41.9070 ha         1 J9U       0.141000
     41 H20         17.3150   -55.8480    39.3820 h4         1 J9U       0.036100
     42 H21         13.6290   -44.5540    45.9130 ha         1 J9U       0.141000
     43 C           17.8060   -51.3120    42.8590 c3         1 J9U      -0.117100
     44 C16         15.5900   -53.4190    43.0790 c3         1 J9U       0.247100
     45 C20         13.6540   -53.5480    40.5920 c3         1 J9U       0.066900
     46 H10         18.1460   -52.3520    42.9150 hc         1 J9U       0.044033
     47 H11         18.5600   -50.7680    42.2780 hc         1 J9U       0.044033
     48 H12         17.8160   -50.8960    43.8730 hc         1 J9U       0.044033
     49 H17         14.7190   -53.9000    43.5460 h1         1 J9U       0.047700
     50 H18         16.4390   -53.5900    43.7550 h1         1 J9U       0.047700
@<TRIPOS>BOND
     1     1     3 1   
     2     1    27 1   
     3     1    28 1   
     4     2    19 2   
     5     2    26 1   
     6     3    13 2   
     7     3    21 1   
     8     4     5 ar  
     9     4    21 ar  
    10     4    29 1   
    11     5     6 1   
    12     5     9 ar  
    13     6     7 ar  
    14     6    16 ar  
    15     7    22 ar  
    16     7    30 1   
    17     8    15 ar  
    18     8    22 ar  
    19     8    23 1   
    20     9    17 1   
    21     9    20 ar  
    22    10    17 1   
    23    10    25 1   
    24    10    31 1   
    25    10    32 1   
    26    11    18 2   
    27    11    26 1   
    28    11    44 1   
    29    12    20 ar  
    30    12    21 ar  
    31    14    20 1   
    32    14    25 1   
    33    14    36 1   
    34    14    43 1   
    35    15    16 ar  
    36    15    37 1   
    37    16    24 1   
    38    17    38 1   
    39    17    39 1   
    40    18    19 1   
    41    18    40 1   
    42    19    41 1   
    43    22    42 1   
    44    25    44 1   
    45    26    45 1   
    46    33    45 1   
    47    34    45 1   
    48    35    45 1   
    49    43    46 1   
    50    43    47 1   
    51    43    48 1   
    52    44    49 1   
    53    44    50 1   
@<TRIPOS>SUBSTRUCTURE
     1 J9U         1 TEMP              0 ****  ****    0 ROOT
