@<TRIPOS>MOLECULE
J9U
   50    53     1     0     0
SMALL
abcg2


@<TRIPOS>ATOM
      1 N1          18.2060   -47.7910    39.2540 nt         1 J9U      -0.587000
      2 N3          15.3730   -54.7550    39.6940 nc         1 J9U      -0.521800
      3 C4          17.3270   -47.0230    39.9020 c          1 J9U       0.513600
      4 C5          15.5390   -47.0600    41.6480 ca         1 J9U      -0.093000
      5 C6          14.7880   -47.7570    42.5840 cp         1 J9U      -0.011000
      6 C7          13.8010   -47.0170    43.4020 cp         1 J9U      -0.109000
      7 C8          14.2310   -46.0600    44.3190 ca         1 J9U      -0.044000
      8 C10         11.9890   -45.5930    44.9410 ca         1 J9U       0.207000
      9 C13         15.0310   -49.1200    42.7770 ca         1 J9U      -0.071300
     10 C15         14.9650   -51.2430    44.0980 c6         1 J9U       0.174800
     11 C17         15.8660   -53.9990    41.7330 cc         1 J9U      -0.158300
     12 N           16.7440   -49.0350    41.1150 nb         1 J9U      -0.678000
     13 O           17.1740   -45.8260    39.7030 o          1 J9U      -0.609100
     14 C1          16.4310   -51.1610    42.1790 c6         1 J9U       0.135200
     15 C11         11.5070   -46.5200    44.0370 ca         1 J9U      -0.202000
     16 C12         12.4340   -47.2130    43.2830 ca         1 J9U       0.216000
     17 C14         14.2670   -49.9330    43.7790 c6         1 J9U      -0.031100
     18 C18         16.9820   -54.6570    41.2600 cd         1 J9U      -0.228000
     19 C19         16.6130   -55.1060    39.9840 cd         1 J9U       0.236900
     20 C2          16.0390   -49.7110    42.0120 ca         1 J9U       0.357300
     21 C3          16.5040   -47.7470    40.9310 ca         1 J9U       0.288500
     22 C9          13.3380   -45.3430    45.0980 ca         1 J9U      -0.170000
     23 F           11.1140   -44.9110    45.6880 f          1 J9U      -0.168000
     24 F1          11.9850   -48.1040    42.3910 f          1 J9U      -0.166000
     25 N2          15.3750   -51.8870    42.8660 n3         1 J9U      -0.741600
     26 N4          14.9350   -54.0870    40.7590 na         1 J9U       0.149800
     27 H1          18.8080   -47.4010    38.5480 hn         1 J9U       0.327500
     28 H2          18.2830   -48.7710    39.4720 hn         1 J9U       0.327500
     29 H3          15.3710   -46.0050    41.4820 ha         1 J9U       0.153000
     30 H4          15.2920   -45.8820    44.4290 ha         1 J9U       0.129000
     31 H5          14.2650   -51.8990    44.6180 h1         1 J9U       0.037200
     32 H6          15.8000   -51.0690    44.7920 h1         1 J9U       0.037200
     33 H7          13.1130   -53.8030    39.8420 h1         1 J9U       0.060367
     34 H8          13.0140   -54.0450    41.5930 h1         1 J9U       0.060367
     35 H9          13.5870   -52.4990    40.9520 h1         1 J9U       0.060367
     36 H13         16.5140   -51.5730    41.1690 h1         1 J9U       0.091700
     37 H14         10.4450   -46.6950    43.9160 ha         1 J9U       0.153000
     38 H15         14.1170   -49.3600    44.6960 hc         1 J9U       0.064700
     39 H16         13.2730   -50.1500    43.3800 hc         1 J9U       0.064700
     40 H19         17.9240   -54.7820    41.7680 ha         1 J9U       0.141000
     41 H20         17.2000   -55.6660    39.2720 h4         1 J9U       0.036100
     42 H21         13.6850   -44.6080    45.8110 ha         1 J9U       0.141000
     43 C           17.8220   -51.2530    42.8250 c3         1 J9U      -0.117100
     44 C16         15.6320   -53.3060    43.0310 c3         1 J9U       0.247100
     45 C20         13.5850   -53.5740    40.7930 c3         1 J9U       0.066900
     46 H10         18.1840   -52.2810    42.8340 hc         1 J9U       0.044033
     47 H11         18.5380   -50.6610    42.2580 hc         1 J9U       0.044033
     48 H12         17.8210   -50.8830    43.8510 hc         1 J9U       0.044033
     49 H17         14.7550   -53.7390    43.5240 h1         1 J9U       0.047700
     50 H18         16.4860   -53.5220    43.6880 h1         1 J9U       0.047700
@<TRIPOS>BOND
     1     1     3 1   
     2     1    27 1   
     3     1    28 1   
     4     2    19 2   
     5     2    26 1   
     6     3    13 2   
     7     3    21 1   
     8     4     5 ar  
     9     4    21 ar  
    10     4    29 1   
    11     5     6 1   
    12     5     9 ar  
    13     6     7 ar  
    14     6    16 ar  
    15     7    22 ar  
    16     7    30 1   
    17     8    15 ar  
    18     8    22 ar  
    19     8    23 1   
    20     9    17 1   
    21     9    20 ar  
    22    10    17 1   
    23    10    25 1   
    24    10    31 1   
    25    10    32 1   
    26    11    18 2   
    27    11    26 1   
    28    11    44 1   
    29    12    20 ar  
    30    12    21 ar  
    31    14    20 1   
    32    14    25 1   
    33    14    36 1   
    34    14    43 1   
    35    15    16 ar  
    36    15    37 1   
    37    16    24 1   
    38    17    38 1   
    39    17    39 1   
    40    18    19 1   
    41    18    40 1   
    42    19    41 1   
    43    22    42 1   
    44    25    44 1   
    45    26    45 1   
    46    33    45 1   
    47    34    45 1   
    48    35    45 1   
    49    43    46 1   
    50    43    47 1   
    51    43    48 1   
    52    44    49 1   
    53    44    50 1   
@<TRIPOS>SUBSTRUCTURE
     1 J9U         1 TEMP              0 ****  ****    0 ROOT
