@<TRIPOS>MOLECULE
J9V
   59    62     1     0     0
SMALL
No Charge or Current Charge


@<TRIPOS>ATOM
      1 N12         -0.3850    -2.0410    -0.5020 n7         1 J9V      -0.869300
      2 C13          0.7250    -1.2640     0.1480 c3         1 J9V       0.211800
      3 C17          4.0020    -2.4570     1.4920 c          1 J9V       0.706000
      4 C20          4.3570    -0.3470    -1.1560 c3         1 J9V       0.165300
      5 C21          4.5420     1.1460    -1.0930 cc         1 J9V      -0.200300
      6 C22          5.6510     1.8430    -0.6810 cd         1 J9V      -0.147000
      7 C24          4.2550     3.6430    -1.1900 cc         1 J9V      -0.281000
      8 C28          0.1810     0.5060     1.9460 ca         1 J9V       0.175100
      9 C02         -5.9530     2.4880    -1.6440 c          1 J9V       0.565200
     10 N03         -5.2890     2.1940    -0.4860 ns         1 J9V      -0.375100
     11 C04         -4.4630     1.0880    -0.2570 ca         1 J9V       0.140600
     12 C05         -4.2740     0.1680    -1.3030 ca         1 J9V      -0.165800
     13 C06         -4.9360     0.3740    -2.5940 cc         1 J9V      -0.066200
     14 C07         -5.7340     1.5000    -2.7210 cd         1 J9V      -0.312200
     15 C08         -3.4410    -0.9480    -1.0970 ca         1 J9V       0.049000
     16 C09         -2.7980    -1.1310     0.1440 ca         1 J9V      -0.330500
     17 S10         -1.7100    -2.5320     0.3840 sy         1 J9V       1.174600
     18 O11         -2.2270    -3.7010    -0.3300 o          1 J9V      -0.540500
     19 C14          1.9640    -1.0680    -0.8150 c          1 J9V       0.617100
     20 N15          3.2470    -0.7700    -0.2740 n          1 J9V      -0.331800
     21 C16          3.6010    -1.0010     1.1570 c3         1 J9V      -0.069000
     22 O18          5.1540    -2.6750     1.8350 o          1 J9V      -0.715000
     23 O19          3.1620    -3.3320     1.3480 o          1 J9V      -0.715000
     24 C23          5.4890     3.2530    -0.7370 cd         1 J9V      -0.138000
     25 S25          3.2470     2.2470    -1.5630 ss         1 J9V       0.239000
     26 O26          1.8100    -1.0840    -2.0380 o          1 J9V      -0.680100
     27 C27          0.2170     0.1220     0.5830 ca         1 J9V      -0.170300
     28 O29          0.5890    -0.4000     2.9050 os         1 J9V      -0.306100
     29 C30          0.5540    -0.1100     4.3120 c3         1 J9V       0.154900
     30 C31         -0.2800     1.7940     2.3000 ca         1 J9V      -0.219000
     31 C32         -0.6990     2.6960     1.3100 ca         1 J9V      -0.068000
     32 C33         -0.6590     2.3210    -0.0390 ca         1 J9V      -0.162000
     33 C34         -0.2020     1.0450    -0.4020 ca         1 J9V      -0.056000
     34 O35         -1.2870    -2.6050     1.7830 o          1 J9V      -0.540500
     35 C36         -3.0080    -0.2110     1.1900 ca         1 J9V       0.047000
     36 C37         -3.8410     0.9010     0.9840 ca         1 J9V      -0.191000
     37 H121        -0.8160    -1.4400    -1.1970 hn         1 J9V       0.510000
     38 H131         1.1020    -1.8230     1.0130 h1         1 J9V       0.149700
     39 H202         4.1780    -0.6520    -2.1950 h1         1 J9V       0.074200
     40 H201         5.2820    -0.8430    -0.8330 h1         1 J9V       0.074200
     41 H221         6.5650     1.3630    -0.3430 ha         1 J9V       0.131000
     42 H241         3.8600     4.6410    -1.3310 h4         1 J9V       0.134000
     43 H071        -6.2560     1.7240    -3.6440 ha         1 J9V       0.205000
     44 H081        -3.2940    -1.6650    -1.9050 ha         1 J9V       0.131000
     45 H162         2.7750    -0.7070     1.8090 h1         1 J9V       0.041200
     46 H161         4.4460    -0.3510     1.4180 h1         1 J9V       0.041200
     47 H231         6.2660     3.9540    -0.4470 ha         1 J9V       0.118000
     48 H302         1.1940     0.7490     4.5490 h1         1 J9V       0.040367
     49 H301        -0.4700     0.1100     4.6380 h1         1 J9V       0.040367
     50 H303         0.9160    -0.9720     4.8850 h1         1 J9V       0.040367
     51 H311        -0.3230     2.1150     3.3360 ha         1 J9V       0.113000
     52 H321        -1.0550     3.6860     1.5890 ha         1 J9V       0.100000
     53 H331        -0.9830     3.0200    -0.8060 ha         1 J9V       0.111000
     54 H341        -0.1760     0.7800    -1.4570 ha         1 J9V       0.126000
     55 H361        -2.5260    -0.3440     2.1570 ha         1 J9V       0.146000
     56 H371        -3.9930     1.6150     1.7880 ha         1 J9V       0.118000
     57 H031        -5.4120     2.8460     0.2770 hn         1 J9V       0.324500
     58 O01         -6.6560     3.4780    -1.7620 o          1 J9V      -0.560000
     59 H061        -4.8140    -0.3180    -3.4260 ha         1 J9V       0.190000
@<TRIPOS>BOND
     1     1     2 1   
     2     1    17 1   
     3     1    37 1   
     4     2    19 1   
     5     2    27 1   
     6     2    38 1   
     7     3    21 1   
     8     3    22 1   
     9     3    23 1   
    10     4     5 1   
    11     4    20 1   
    12     4    39 1   
    13     4    40 1   
    14     5     6 2   
    15     5    25 1   
    16     6    24 1   
    17     6    41 1   
    18     7    24 2   
    19     7    25 1   
    20     7    42 1   
    21     8    27 ar  
    22     8    28 1   
    23     8    30 ar  
    24     9    10 1   
    25     9    14 1   
    26     9    58 2   
    27    10    11 1   
    28    10    57 1   
    29    11    12 ar  
    30    11    36 ar  
    31    12    13 1   
    32    12    15 ar  
    33    13    14 2   
    34    13    59 1   
    35    14    43 1   
    36    15    16 ar  
    37    15    44 1   
    38    16    17 1   
    39    16    35 ar  
    40    17    18 2   
    41    17    34 2   
    42    19    20 1   
    43    19    26 2   
    44    20    21 1   
    45    21    45 1   
    46    21    46 1   
    47    24    47 1   
    48    27    33 ar  
    49    28    29 1   
    50    29    48 1   
    51    29    49 1   
    52    29    50 1   
    53    30    31 ar  
    54    30    51 1   
    55    31    32 ar  
    56    31    52 1   
    57    32    33 ar  
    58    32    53 1   
    59    33    54 1   
    60    35    36 ar  
    61    35    55 1   
    62    36    56 1   
@<TRIPOS>SUBSTRUCTURE
     1 J9V         1 TEMP              0 ****  ****    0 ROOT
