@<TRIPOS>MOLECULE
J9V
   59    62     1     0     0
SMALL
bcc


@<TRIPOS>ATOM
      1 N12         -0.1010    -2.1110    -0.4500 n7         1 J9V      -0.814100
      2 C13          0.8160    -1.2980     0.3390 c3         1 J9V       0.211800
      3 C17          3.8770    -2.0480     1.8820 c          1 J9V       0.916600
      4 C20          4.2660    -0.3790    -0.9700 c3         1 J9V       0.165300
      5 C21          4.2730     1.0250    -1.4840 cc         1 J9V      -0.055400
      6 C22          5.1660     2.0100    -1.1840 cd         1 J9V      -0.165000
      7 C24          3.7680     3.1680    -2.6150 cc         1 J9V      -0.154100
      8 C28          0.0240     0.2650     2.1900 ca         1 J9V       0.175100
      9 C02         -5.3500     2.8850    -1.3750 c          1 J9V       0.707700
     10 N03         -4.9320     2.2850    -0.2110 ns         1 J9V      -0.442100
     11 C04         -4.1930     1.1400    -0.1220 ca         1 J9V       0.140600
     12 C05         -3.8060     0.4890    -1.3050 ca         1 J9V      -0.165800
     13 C06         -4.2220     1.0620    -2.5510 cc         1 J9V      -0.016200
     14 C07         -4.9490     2.1940    -2.5910 cd         1 J9V      -0.262200
     15 C08         -3.0300    -0.6660    -1.2240 ca         1 J9V       0.031000
     16 C09         -2.6470    -1.1490     0.0090 ca         1 J9V      -0.330500
     17 S10         -1.5810    -2.5590     0.0820 sy         1 J9V       1.316200
     18 O11         -2.0660    -3.5180    -0.8990 o          1 J9V      -0.611300
     19 C14          1.9960    -1.0080    -0.6000 c          1 J9V       0.684100
     20 N15          3.1570    -0.6320    -0.0610 n          1 J9V      -0.398800
     21 C16          3.4620    -0.6550     1.3520 c3         1 J9V      -0.069000
     22 O18          4.3800    -2.0440     3.0190 o          1 J9V      -0.820300
     23 O19          3.6460    -3.0220     1.1460 o          1 J9V      -0.820300
     24 C23          4.8800     3.2430    -1.8330 cd         1 J9V      -0.156000
     25 S25          3.0640     1.6050    -2.5700 ss         1 J9V      -0.050800
     26 O26          1.8290    -1.0690    -1.8150 o          1 J9V      -0.680100
     27 C27          0.2230     0.0130     0.8250 ca         1 J9V      -0.170300
     28 O29          0.4220    -0.6910     3.0480 os         1 J9V      -0.282900
     29 C30          0.2420    -0.4910     4.4340 c3         1 J9V       0.131700
     30 C31         -0.5580     1.4660     2.5950 ca         1 J9V      -0.237000
     31 C32         -0.9600     2.3980     1.6510 ca         1 J9V      -0.086000
     32 C33         -0.7780     2.1550     0.2980 ca         1 J9V      -0.180000
     33 C34         -0.1820     0.9690    -0.0990 ca         1 J9V      -0.074000
     34 O35         -1.4420    -2.9400     1.4770 o          1 J9V      -0.611300
     35 C36         -3.0520    -0.5150     1.1850 ca         1 J9V       0.029000
     36 C37         -3.8240     0.6210     1.1210 ca         1 J9V      -0.209000
     37 H121        -0.0390    -1.9500    -1.4520 hn         1 J9V       0.454800
     38 H131         1.1600    -1.8970     1.1790 h1         1 J9V       0.149700
     39 H202         4.2460    -1.0980    -1.7890 h1         1 J9V       0.074200
     40 H201         5.1940    -0.5490    -0.4260 h1         1 J9V       0.074200
     41 H221         6.0060     1.8560    -0.5200 ha         1 J9V       0.149000
     42 H241         3.3250     3.9500    -3.2130 h4         1 J9V       0.152000
     43 H071        -5.2580     2.6300    -3.5300 ha         1 J9V       0.155000
     44 H081        -2.7280    -1.1570    -2.1420 ha         1 J9V       0.149000
     45 H162         2.6160    -0.2970     1.9390 h1         1 J9V       0.041200
     46 H161         4.2570     0.0690     1.5360 h1         1 J9V       0.041200
     47 H231         5.4730     4.1390    -1.7190 ha         1 J9V       0.136000
     48 H302         0.7980     0.3780     4.7970 h1         1 J9V       0.040367
     49 H301        -0.8130    -0.3700     4.6950 h1         1 J9V       0.040367
     50 H303         0.6240    -1.3820     4.9250 h1         1 J9V       0.040367
     51 H311        -0.7180     1.6810     3.6430 ha         1 J9V       0.131000
     52 H321        -1.4220     3.3180     1.9830 ha         1 J9V       0.118000
     53 H331        -1.0990     2.8770    -0.4400 ha         1 J9V       0.129000
     54 H341        -0.0390     0.7780    -1.1550 ha         1 J9V       0.144000
     55 H361        -2.7630    -0.9050     2.1500 ha         1 J9V       0.164000
     56 H371        -4.1320     1.1180     2.0310 ha         1 J9V       0.136000
     57 H031        -5.1940     2.7480     0.6500 hn         1 J9V       0.324500
     58 O01         -6.0050     3.9170    -1.3510 o          1 J9V      -0.635500
     59 H061        -3.9360     0.5660    -3.4710 ha         1 J9V       0.140000
@<TRIPOS>BOND
     1     1     2 1   
     2     1    17 1   
     3     1    37 1   
     4     2    19 1   
     5     2    27 1   
     6     2    38 1   
     7     3    21 1   
     8     3    22 1   
     9     3    23 1   
    10     4     5 1   
    11     4    20 1   
    12     4    39 1   
    13     4    40 1   
    14     5     6 2   
    15     5    25 1   
    16     6    24 1   
    17     6    41 1   
    18     7    24 2   
    19     7    25 1   
    20     7    42 1   
    21     8    27 ar  
    22     8    28 1   
    23     8    30 ar  
    24     9    10 1   
    25     9    14 1   
    26     9    58 2   
    27    10    11 1   
    28    10    57 1   
    29    11    12 ar  
    30    11    36 ar  
    31    12    13 1   
    32    12    15 ar  
    33    13    14 2   
    34    13    59 1   
    35    14    43 1   
    36    15    16 ar  
    37    15    44 1   
    38    16    17 1   
    39    16    35 ar  
    40    17    18 2   
    41    17    34 2   
    42    19    20 1   
    43    19    26 2   
    44    20    21 1   
    45    21    45 1   
    46    21    46 1   
    47    24    47 1   
    48    27    33 ar  
    49    28    29 1   
    50    29    48 1   
    51    29    49 1   
    52    29    50 1   
    53    30    31 ar  
    54    30    51 1   
    55    31    32 ar  
    56    31    52 1   
    57    32    33 ar  
    58    32    53 1   
    59    33    54 1   
    60    35    36 ar  
    61    35    55 1   
    62    36    56 1   
@<TRIPOS>SUBSTRUCTURE
     1 J9V         1 TEMP              0 ****  ****    0 ROOT
