@<TRIPOS>MOLECULE
J9W
   17    18     1     0     0
SMALL
No Charge or Current Charge


@<TRIPOS>ATOM
      1 C10         -0.6980    -1.3640    -0.0300 c          1 J9W       0.601600
      2 N12         -1.8370    -0.6300    -0.0290 ns         1 J9W      -0.496500
      3 O01         -3.0680     1.2700    -0.0160 o          1 J9W      -0.494000
      4 C02         -1.9770     0.7250    -0.0160 c          1 J9W       0.726100
      5 O03         -0.7890     1.4110    -0.0030 os         1 J9W      -0.321200
      6 C04          0.4510     0.8240    -0.0020 ca         1 J9W       0.173100
      7 C05          1.6010     1.6280     0.0120 ca         1 J9W      -0.133000
      8 C06          2.8730     1.0290     0.0130 ca         1 J9W      -0.050000
      9 C07          2.9860    -0.3730    -0.0000 ca         1 J9W      -0.143000
     10 C08          1.8320    -1.1760    -0.0150 ca         1 J9W      -0.018000
     11 C09          0.5580    -0.5700    -0.0150 ca         1 J9W      -0.230600
     12 O11         -0.7250    -2.5840    -0.0430 o          1 J9W      -0.504000
     13 H1          -2.6970    -1.1520    -0.0390 hn         1 J9W       0.349500
     14 H2           1.5050     2.7100     0.0230 ha         1 J9W       0.143000
     15 H3           3.7670     1.6490     0.0240 ha         1 J9W       0.125000
     16 H4           3.9700    -0.8370     0.0000 ha         1 J9W       0.128000
     17 H5           1.9300    -2.2610    -0.0250 ha         1 J9W       0.141000
@<TRIPOS>BOND
     1     1     2 1   
     2     1    11 1   
     3     1    12 2   
     4     2     4 1   
     5     2    13 1   
     6     3     4 2   
     7     4     5 1   
     8     5     6 1   
     9     6     7 ar  
    10     6    11 ar  
    11     7     8 ar  
    12     7    14 1   
    13     8     9 ar  
    14     8    15 1   
    15     9    10 ar  
    16     9    16 1   
    17    10    11 ar  
    18    10    17 1   
@<TRIPOS>SUBSTRUCTURE
     1 J9W         1 TEMP              0 ****  ****    0 ROOT
