@<TRIPOS>MOLECULE
J9W
   17    18     1     0     0
SMALL
abcg2


@<TRIPOS>ATOM
      1 C10         -0.6590    -1.3860    -0.0300 c          1 J9W       0.601600
      2 N12         -1.8180    -0.6340    -0.0280 ns         1 J9W      -0.496500
      3 O01         -2.9610     1.3240    -0.0130 o          1 J9W      -0.494000
      4 C02         -1.9200     0.7290    -0.0150 c          1 J9W       0.726100
      5 O03         -0.7660     1.4130    -0.0020 os         1 J9W      -0.321200
      6 C04          0.4500     0.8010    -0.0020 ca         1 J9W       0.173100
      7 C05          1.5720     1.6150     0.0110 ca         1 J9W      -0.133000
      8 C06          2.8200     1.0180     0.0120 ca         1 J9W      -0.050000
      9 C07          2.9540    -0.3700     0.0000 ca         1 J9W      -0.143000
     10 C08          1.8260    -1.1660    -0.0140 ca         1 J9W      -0.018000
     11 C09          0.5610    -0.5820    -0.0150 ca         1 J9W      -0.230600
     12 O11         -0.6970    -2.5950    -0.0450 o          1 J9W      -0.504000
     13 H1          -2.6960    -1.1400    -0.0410 hn         1 J9W       0.349500
     14 H2           1.4660     2.6910     0.0200 ha         1 J9W       0.143000
     15 H3           3.7020     1.6450     0.0240 ha         1 J9W       0.125000
     16 H4           3.9360    -0.8200     0.0020 ha         1 J9W       0.128000
     17 H5           1.9130    -2.2440    -0.0250 ha         1 J9W       0.141000
@<TRIPOS>BOND
     1     1     2 1   
     2     1    11 1   
     3     1    12 2   
     4     2     4 1   
     5     2    13 1   
     6     3     4 2   
     7     4     5 1   
     8     5     6 1   
     9     6     7 ar  
    10     6    11 ar  
    11     7     8 ar  
    12     7    14 1   
    13     8     9 ar  
    14     8    15 1   
    15     9    10 ar  
    16     9    16 1   
    17    10    11 ar  
    18    10    17 1   
@<TRIPOS>SUBSTRUCTURE
     1 J9W         1 TEMP              0 ****  ****    0 ROOT
