@<TRIPOS>MOLECULE
J9X
   14    13     1     0     0
SMALL
No Charge or Current Charge


@<TRIPOS>ATOM
      1 C01        -77.4500    49.8800     0.4880 c3         1 J9X       0.105000
      2 C03        -75.0670    50.6410     0.0600 c          1 J9X       0.441100
      3 C05        -73.6550    50.1780    -0.6340 c          1 J9X       0.666000
      4 C08        -78.3170    50.7380    -0.4510 c3         1 J9X      -0.111100
      5 N02        -76.0890    49.7020    -0.0230 ns         1 J9X      -0.516900
      6 O04        -75.2370    51.7260     0.6230 o          1 J9X      -0.652100
      7 O06        -73.6020    49.0670    -1.1610 o          1 J9X      -0.700000
      8 O07        -72.6970    50.9500    -0.6080 o          1 J9X      -0.700000
      9 H1         -77.4040    50.3470     1.4800 h1         1 J9X       0.027700
     10 H2         -77.9090    48.8890     0.6010 h1         1 J9X       0.027700
     11 H3         -79.3310    50.8340    -0.0460 hc         1 J9X       0.026367
     12 H4         -77.8960    51.7440    -0.5620 hc         1 J9X       0.026367
     13 H5         -78.3850    50.2770    -1.4430 hc         1 J9X       0.026367
     14 H6         -75.8570    48.8350    -0.5000 hn         1 J9X       0.333500
@<TRIPOS>BOND
     1     1     4 1   
     2     1     5 1   
     3     1     9 1   
     4     1    10 1   
     5     2     3 1   
     6     2     5 1   
     7     2     6 2   
     8     3     7 1   
     9     3     8 1   
    10     4    11 1   
    11     4    12 1   
    12     4    13 1   
    13     5    14 1   
@<TRIPOS>SUBSTRUCTURE
     1 J9X         1 TEMP              0 ****  ****    0 ROOT
