@<TRIPOS>MOLECULE
J9X
   14    13     1     0     0
SMALL
bcc


@<TRIPOS>ATOM
      1 C01        -77.3900    49.9270     0.4760 c3         1 J9X       0.105000
      2 C03        -75.0590    50.6200     0.0900 c          1 J9X       0.508100
      3 C05        -73.7340    50.1680    -0.6040 c          1 J9X       0.876600
      4 C08        -78.3060    50.6880    -0.4730 c3         1 J9X      -0.111100
      5 N02        -76.0570    49.7360    -0.0430 ns         1 J9X      -0.583900
      6 O04        -75.1620    51.6730     0.7060 o          1 J9X      -0.652100
      7 O06        -73.8140    49.1290    -1.2860 o          1 J9X      -0.805300
      8 O07        -72.7510    50.8890    -0.4010 o          1 J9X      -0.805300
      9 H1         -77.3230    50.4520     1.4300 h1         1 J9X       0.027700
     10 H2         -77.8110    48.9440     0.6890 h1         1 J9X       0.027700
     11 H3         -79.3000    50.7970    -0.0360 hc         1 J9X       0.026367
     12 H4         -77.9190    51.6860    -0.6780 hc         1 J9X       0.026367
     13 H5         -78.4140    50.1630    -1.4220 hc         1 J9X       0.026367
     14 H6         -75.8580    48.9370    -0.6240 hn         1 J9X       0.333500
@<TRIPOS>BOND
     1     1     4 1   
     2     1     5 1   
     3     1     9 1   
     4     1    10 1   
     5     2     3 1   
     6     2     5 1   
     7     2     6 2   
     8     3     7 1   
     9     3     8 1   
    10     4    11 1   
    11     4    12 1   
    12     4    13 1   
    13     5    14 1   
@<TRIPOS>SUBSTRUCTURE
     1 J9X         1 TEMP              0 ****  ****    0 ROOT
