@<TRIPOS>MOLECULE
J9Y
   30    29     1     0     0
SMALL
bcc


@<TRIPOS>ATOM
      1 N           -9.7360    22.3180    54.7740 n8         1 J9Y      -0.911800
      2 CA          -8.6050    23.1990    55.0260 c3         1 J9Y       0.015500
      3 CB          -8.4500    23.4400    56.5270 c3         1 J9Y      -0.027400
      4 C           -7.3100    22.6570    54.3680 c          1 J9Y       0.923600
      5 O           -7.4420    21.7940    53.4780 o          1 J9Y      -0.823800
      6 CG          -8.1150    22.1880    57.3240 c3         1 J9Y      -0.095400
      7 CD          -8.1130    22.4750    58.8190 c3         1 J9Y       0.029300
      8 NE          -7.6950    21.3430    59.6280 nh         1 J9Y      -0.188200
      9 CZ          -8.4830    20.4500    60.2340 cz         1 J9Y       0.515300
     10 NH1         -9.7940    20.4680    60.0190 nu         1 J9Y      -0.394200
     11 NH2         -7.9550    19.5690    61.0690 nv         1 J9Y      -0.510200
     12 OXT         -6.2400    23.1690    54.7550 o          1 J9Y      -0.823800
     13 C1         -10.7280    19.6140    60.7230 c3         1 J9Y       0.015600
     14 O1          -6.3510    21.2000    59.8180 oh         1 J9Y      -0.400200
     15 H1         -10.5990    22.8450    54.8160 hn         1 J9Y       0.337300
     16 H2          -9.6540    21.9540    53.8340 hn         1 J9Y       0.337300
     17 H4          -8.7580    24.1930    54.5700 h1         1 J9Y       0.020700
     18 H5          -7.6790    24.1950    56.6910 hc         1 J9Y       0.025200
     19 H6          -9.3820    23.8730    56.9080 hc         1 J9Y       0.025200
     20 H7          -8.8370    21.4000    57.0970 hc         1 J9Y       0.070200
     21 H8          -7.1300    21.8160    57.0290 hc         1 J9Y       0.070200
     22 H9          -7.4260    23.2900    59.0560 h1         1 J9Y       0.077200
     23 H10         -9.0960    22.8070    59.1590 h1         1 J9Y       0.077200
     24 H11        -10.1520    20.9930    59.2390 hn         1 J9Y       0.339700
     25 H12         -8.4950    18.8060    61.4400 hn         1 J9Y       0.325200
     26 H13         -6.9750    19.5970    61.2980 hn         1 J9Y       0.325200
     27 H15        -11.7310    19.9100    60.4350 h1         1 J9Y       0.067033
     28 H16        -10.5970    18.5610    60.4680 h1         1 J9Y       0.067033
     29 H17        -10.6350    19.7360    61.8020 h1         1 J9Y       0.067033
     30 H18         -6.0140    20.6930    59.0630 ho         1 J9Y       0.444000
@<TRIPOS>BOND
     1     1     2 1   
     2     1    15 1   
     3     1    16 1   
     4     2     3 1   
     5     2     4 1   
     6     2    17 1   
     7     3     6 1   
     8     3    18 1   
     9     3    19 1   
    10     4     5 1   
    11     4    12 1   
    12     6     7 1   
    13     6    20 1   
    14     6    21 1   
    15     7     8 1   
    16     7    22 1   
    17     7    23 1   
    18     8     9 2   
    19     8    14 1   
    20     9    10 1   
    21     9    11 1   
    22    10    13 1   
    23    10    24 1   
    24    11    25 1   
    25    11    26 1   
    26    13    27 1   
    27    13    28 1   
    28    13    29 1   
    29    14    30 1   
@<TRIPOS>SUBSTRUCTURE
     1 J9Y         1 TEMP              0 ****  ****    0 ROOT
