@<TRIPOS>MOLECULE
J9Y
   30    29     1     0     0
SMALL
No Charge or Current Charge


@<TRIPOS>ATOM
      1 N           -9.8290    22.2410    54.7340 n8         1 J9Y      -0.911800
      2 CA          -8.6590    23.1690    54.9920 c3         1 J9Y       0.015500
      3 CB          -8.5020    23.3980    56.5250 c3         1 J9Y      -0.027400
      4 C           -7.2730    22.8450    54.2570 c          1 J9Y       0.923600
      5 O           -7.2940    22.1570    53.2390 o          1 J9Y      -0.823800
      6 CG          -8.0820    22.1430    57.3320 c3         1 J9Y      -0.095400
      7 CD          -7.9460    22.4240    58.8440 c3         1 J9Y       0.029300
      8 NE          -7.5630    21.2350    59.6340 nh         1 J9Y      -0.188200
      9 CZ          -8.4220    20.4370    60.3050 cz         1 J9Y       0.515300
     10 NH1         -9.7100    20.3750    59.9410 nu         1 J9Y      -0.394200
     11 NH2         -8.0050    19.6740    61.3140 nv         1 J9Y      -0.510200
     12 OXT         -6.2230    23.2730    54.7270 o          1 J9Y      -0.823800
     13 C1         -10.8070    19.6240    60.5770 c3         1 J9Y       0.015600
     14 O1          -6.1580    21.0540    59.8540 oh         1 J9Y      -0.400200
     15 H1         -10.6950    22.6810    55.0610 hn         1 J9Y       0.337300
     16 H2          -9.9550    22.1380    53.7210 hn         1 J9Y       0.337300
     17 H4          -8.9640    24.1350    54.5680 h1         1 J9Y       0.020700
     18 H5          -7.7720    24.1990    56.6970 hc         1 J9Y       0.025200
     19 H6          -9.4540    23.7700    56.9240 hc         1 J9Y       0.025200
     20 H7          -8.8180    21.3450    57.1760 hc         1 J9Y       0.070200
     21 H8          -7.1230    21.7680    56.9530 hc         1 J9Y       0.070200
     22 H9          -7.1860    23.2050    58.9860 h1         1 J9Y       0.077200
     23 H10         -8.8890    22.8400    59.2240 h1         1 J9Y       0.077200
     24 H11         -9.9690    20.9040    59.1140 hn         1 J9Y       0.339700
     25 H12         -8.6240    19.0570    61.8180 hn         1 J9Y       0.325200
     26 H13         -7.0450    19.7030    61.6310 hn         1 J9Y       0.325200
     27 H15        -11.7560    19.8300    60.0660 h1         1 J9Y       0.067033
     28 H16        -10.6150    18.5440    60.5250 h1         1 J9Y       0.067033
     29 H17        -10.9140    19.9150    61.6310 h1         1 J9Y       0.067033
     30 H18         -5.9260    20.4690    59.0980 ho         1 J9Y       0.444000
@<TRIPOS>BOND
     1     1     2 1   
     2     1    15 1   
     3     1    16 1   
     4     2     3 1   
     5     2     4 1   
     6     2    17 1   
     7     3     6 1   
     8     3    18 1   
     9     3    19 1   
    10     4     5 1   
    11     4    12 1   
    12     6     7 1   
    13     6    20 1   
    14     6    21 1   
    15     7     8 1   
    16     7    22 1   
    17     7    23 1   
    18     8     9 2   
    19     8    14 1   
    20     9    10 1   
    21     9    11 1   
    22    10    13 1   
    23    10    24 1   
    24    11    25 1   
    25    11    26 1   
    26    13    27 1   
    27    13    28 1   
    28    13    29 1   
    29    14    30 1   
@<TRIPOS>SUBSTRUCTURE
     1 J9Y         1 TEMP              0 ****  ****    0 ROOT
