@<TRIPOS>MOLECULE
JA0
   31    33     1     0     0
SMALL
No Charge or Current Charge


@<TRIPOS>ATOM
      1 C10        -23.6320    32.9130   -24.1630 ca         1 JA0      -0.095000
      2 C13        -25.7900    32.0120   -25.7180 ca         1 JA0       0.120000
      3 C15        -25.0670    31.1030   -24.9290 ca         1 JA0      -0.071000
      4 C01        -23.0440    23.5680   -25.6770 c3         1 JA0       0.222100
      5 C03        -23.2990    25.9290   -24.6910 ca         1 JA0       0.469900
      6 C04        -22.8340    27.2600   -24.6410 ca         1 JA0      -0.114600
      7 C06        -21.7850    29.1300   -24.9010 cc         1 JA0       0.404700
      8 C09        -23.9780    31.5470   -24.1480 ca         1 JA0      -0.117300
      9 C11        -24.3580    33.8220   -24.9540 ca         1 JA0      -0.105000
     10 C12        -25.4380    33.3710   -25.7330 ca         1 JA0      -0.089000
     11 C16        -23.4850    28.1470   -23.8190 ca         1 JA0       0.147500
     12 C18        -24.9150    26.4970   -23.1840 ca         1 JA0       0.400200
     13 F19        -25.9750    26.1140   -22.4400 f          1 JA0      -0.210200
     14 N02        -22.6820    24.9870   -25.5040 nu         1 JA0      -0.905100
     15 N05        -21.7640    27.8530   -25.3290 nd         1 JA0      -0.546100
     16 N07        -22.8210    29.3270   -23.9870 na         1 JA0      -0.282300
     17 N17        -24.5430    27.7910   -23.0690 nb         1 JA0      -0.249000
     18 N20        -24.3540    25.5390   -23.9530 nb         1 JA0      -0.317000
     19 Cl14       -27.1430    31.4460   -26.6890 cl         1 JA0      -0.203000
     20 H101       -22.7990    33.2750   -23.5640 ha         1 JA0       0.113000
     21 H151       -25.3580    30.0560   -24.9260 ha         1 JA0       0.150000
     22 H012       -22.3650    23.0800   -26.3900 h1         1 JA0       0.049367
     23 H013       -22.9800    23.0330   -24.7190 h1         1 JA0       0.049367
     24 H011       -24.0700    23.4750   -26.0580 h1         1 JA0       0.049367
     25 H061       -21.1120    29.9250   -25.2010 h5         1 JA0       0.067800
     26 H081       -23.7740    30.3210   -22.3920 h1         1 JA0       0.076700
     27 H082       -22.2610    31.0490   -22.9360 h1         1 JA0       0.076700
     28 H111       -24.0840    34.8750   -24.9620 ha         1 JA0       0.121000
     29 H121       -26.0000    34.0720   -26.3450 ha         1 JA0       0.132000
     30 H021       -21.8900    25.3550   -26.0360 hn         1 JA0       0.518000
     31 C08        -23.1840    30.5690   -23.2840 c3         1 JA0       0.135900
@<TRIPOS>BOND
     1     1     8 ar  
     2     1     9 ar  
     3     1    20 1   
     4     2     3 ar  
     5     2    10 ar  
     6     2    19 1   
     7     3     8 ar  
     8     3    21 1   
     9     4    14 1   
    10     4    22 1   
    11     4    23 1   
    12     4    24 1   
    13     5     6 ar  
    14     5    14 1   
    15     5    18 ar  
    16     6    11 ar  
    17     6    15 1   
    18     7    15 2   
    19     7    16 1   
    20     7    25 1   
    21     8    31 1   
    22     9    10 ar  
    23     9    28 1   
    24    10    29 1   
    25    11    16 1   
    26    11    17 ar  
    27    12    13 1   
    28    12    17 ar  
    29    12    18 ar  
    30    14    30 1   
    31    16    31 1   
    32    26    31 1   
    33    27    31 1   
@<TRIPOS>SUBSTRUCTURE
     1 JA0         1 TEMP              0 ****  ****    0 ROOT
