@<TRIPOS>MOLECULE
JA0
   31    33     1     0     0
SMALL
abcg2


@<TRIPOS>ATOM
      1 C10        -23.4020    32.5000   -24.7010 ca         1 JA0      -0.095000
      2 C13        -26.0780    32.0420   -25.2030 ca         1 JA0       0.120000
      3 C15        -25.4150    31.2430   -24.2840 ca         1 JA0      -0.071000
      4 C01        -22.9570    23.7970   -25.8270 c3         1 JA0       0.222100
      5 C03        -23.1800    26.0400   -24.8360 ca         1 JA0       0.469900
      6 C04        -22.7000    27.3450   -24.5810 ca         1 JA0      -0.114600
      7 C06        -21.6630    29.1970   -24.4040 cc         1 JA0       0.404700
      8 C09        -24.0630    31.4720   -24.0320 ca         1 JA0      -0.117300
      9 C11        -24.0840    33.2930   -25.6170 ca         1 JA0      -0.105000
     10 C12        -25.4310    33.0690   -25.8780 ca         1 JA0      -0.089000
     11 C16        -23.5160    28.1750   -23.8200 ca         1 JA0       0.147500
     12 C18        -25.0280    26.6130   -23.6200 ca         1 JA0       0.400200
     13 F19        -26.2170    26.1930   -23.1430 f          1 JA0      -0.210200
     14 N02        -22.4990    25.1480   -25.5580 nu         1 JA0      -0.905100
     15 N05        -21.5390    28.0050   -24.9380 nd         1 JA0      -0.546100
     16 N07        -22.8380    29.3590   -23.7070 na         1 JA0      -0.282300
     17 N17        -24.7180    27.8460   -23.3070 nb         1 JA0      -0.249000
     18 N20        -24.3840    25.7010   -24.3220 nb         1 JA0      -0.317000
     19 CL14       -27.7780    31.7510   -25.5140 cl         1 JA0      -0.203000
     20 H101       -22.3540    32.6810   -24.5020 ha         1 JA0       0.113000
     21 H151       -25.9400    30.4480   -23.7720 ha         1 JA0       0.150000
     22 H012       -22.2150    23.3080   -26.4520 h1         1 JA0       0.049367
     23 H013       -23.0750    23.2290   -24.9020 h1         1 JA0       0.049367
     24 H011       -23.9140    23.8070   -26.3510 h1         1 JA0       0.049367
     25 H061       -20.9440    29.9980   -24.4730 h5         1 JA0       0.067800
     26 H081       -23.9530    30.2870   -22.2360 h1         1 JA0       0.076700
     27 H082       -22.4470    31.1050   -22.6650 h1         1 JA0       0.076700
     28 H111       -23.5680    34.0920   -26.1340 ha         1 JA0       0.121000
     29 H121       -25.9700    33.6810   -26.5870 ha         1 JA0       0.132000
     30 H021       -21.5990    25.4330   -25.9100 hn         1 JA0       0.518000
     31 C08        -23.3150    30.5850   -23.0660 c3         1 JA0       0.135900
@<TRIPOS>BOND
     1     1     8 ar  
     2     1     9 ar  
     3     1    20 1   
     4     2     3 ar  
     5     2    10 ar  
     6     2    19 1   
     7     3     8 ar  
     8     3    21 1   
     9     4    14 1   
    10     4    22 1   
    11     4    23 1   
    12     4    24 1   
    13     5     6 ar  
    14     5    14 1   
    15     5    18 ar  
    16     6    11 ar  
    17     6    15 1   
    18     7    15 2   
    19     7    16 1   
    20     7    25 1   
    21     8    31 1   
    22     9    10 ar  
    23     9    28 1   
    24    10    29 1   
    25    11    16 1   
    26    11    17 ar  
    27    12    13 1   
    28    12    17 ar  
    29    12    18 ar  
    30    14    30 1   
    31    16    31 1   
    32    26    31 1   
    33    27    31 1   
@<TRIPOS>SUBSTRUCTURE
     1 JA0         1 TEMP              0 ****  ****    0 ROOT
