@<TRIPOS>MOLECULE
JA1
   44    45     1     0     0
SMALL
bcc


@<TRIPOS>ATOM
      1 C           -0.4830    -2.0250     0.0210 ca         1 JA1       0.154100
      2 N            5.6830     1.6420    -1.1000 no         1 JA1       0.321200
      3 O           -0.1480    -2.8450    -0.9910 oh         1 JA1      -0.487100
      4 C1           0.4620    -1.4860     0.8940 ca         1 JA1      -0.021900
      5 O1           1.7800    -1.8580     0.7280 os         1 JA1      -0.249200
      6 C2           2.6790    -0.9590     0.2690 ca         1 JA1       0.176100
      7 O2           6.8340     1.2740    -1.0300 o          1 JA1      -0.213000
      8 C3           4.0180    -1.3400     0.3510 ca         1 JA1      -0.194000
      9 O3           5.3490     2.7190    -1.5380 o          1 JA1      -0.213000
     10 C4           5.0050    -0.4910    -0.1010 ca         1 JA1      -0.028000
     11 C5           4.6500     0.7440    -0.6330 ca         1 JA1      -0.218200
     12 C6           3.3200     1.1280    -0.7230 ca         1 JA1      -0.028000
     13 C7           2.3290     0.2760    -0.2720 ca         1 JA1      -0.194000
     14 C8           0.0760    -0.6500     1.9250 ca         1 JA1      -0.095000
     15 C9          -1.2620    -0.3310     2.0900 ca         1 JA1      -0.156000
     16 C10         -2.2270    -0.8570     1.2330 ca         1 JA1      -0.028300
     17 C11         -3.6820    -0.5180     1.4170 c3         1 JA1      -0.036100
     18 C12         -4.2980     0.2150     0.2270 c3         1 JA1      -0.072400
     19 C13         -5.7390     0.6350     0.4910 c3         1 JA1      -0.076400
     20 C14         -6.3990     1.3080    -0.7050 c3         1 JA1      -0.075400
     21 C15         -7.8230     1.7710    -0.4210 c3         1 JA1      -0.075400
     22 C16         -8.4820     2.4330    -1.6230 c3         1 JA1      -0.089100
     23 C17         -1.8230    -1.7070     0.2080 ca         1 JA1      -0.161000
     24 HO           0.7830    -3.0910    -0.9410 ho         1 JA1       0.442000
     25 H3           4.2810    -2.3010     0.7710 ha         1 JA1       0.160500
     26 H4           6.0390    -0.7940    -0.0290 ha         1 JA1       0.171000
     27 H6           3.0390     2.0830    -1.1420 ha         1 JA1       0.171000
     28 H7           1.2960     0.5830    -0.3500 ha         1 JA1       0.160500
     29 H8           0.8230    -0.2490     2.6000 ha         1 JA1       0.147000
     30 H9          -1.5570     0.3230     2.9010 ha         1 JA1       0.141000
     31 H11         -4.2490    -1.4360     1.6020 hc         1 JA1       0.052200
     32 H11A        -3.7910     0.0950     2.3150 hc         1 JA1       0.052200
     33 H12         -3.6970     1.0990    -0.0100 hc         1 JA1       0.043700
     34 H12A        -4.2630    -0.4270    -0.6590 hc         1 JA1       0.043700
     35 H13         -6.3250    -0.2440     0.7820 hc         1 JA1       0.038200
     36 H13A        -5.7620     1.3150     1.3500 hc         1 JA1       0.038200
     37 H14         -5.7960     2.1670    -1.0200 hc         1 JA1       0.038700
     38 H14A        -6.4070     0.6150    -1.5540 hc         1 JA1       0.038700
     39 H15         -8.4230     0.9150    -0.0960 hc         1 JA1       0.036700
     40 H15A        -7.8130     2.4700     0.4210 hc         1 JA1       0.036700
     41 H16         -7.9200     3.3130    -1.9440 hc         1 JA1       0.032367
     42 H16A        -8.5360     1.7500    -2.4720 hc         1 JA1       0.032367
     43 H16B        -9.4980     2.7580    -1.3950 hc         1 JA1       0.032367
     44 H17         -2.5540    -2.1410    -0.4650 ha         1 JA1       0.154000
@<TRIPOS>BOND
     1     1     3 1   
     2     1     4 ar  
     3     1    23 ar  
     4     2     7 1   
     5     2     9 1   
     6     2    11 1   
     7     3    24 1   
     8     4     5 1   
     9     4    14 ar  
    10     5     6 1   
    11     6     8 ar  
    12     6    13 ar  
    13     8    10 ar  
    14     8    25 1   
    15    10    11 ar  
    16    10    26 1   
    17    11    12 ar  
    18    12    13 ar  
    19    12    27 1   
    20    13    28 1   
    21    14    15 ar  
    22    14    29 1   
    23    15    16 ar  
    24    15    30 1   
    25    16    17 1   
    26    16    23 ar  
    27    17    18 1   
    28    17    31 1   
    29    17    32 1   
    30    18    19 1   
    31    18    33 1   
    32    18    34 1   
    33    19    20 1   
    34    19    35 1   
    35    19    36 1   
    36    20    21 1   
    37    20    37 1   
    38    20    38 1   
    39    21    22 1   
    40    21    39 1   
    41    21    40 1   
    42    22    41 1   
    43    22    42 1   
    44    22    43 1   
    45    23    44 1   
@<TRIPOS>SUBSTRUCTURE
     1 JA1         1 TEMP              0 ****  ****    0 ROOT
