@<TRIPOS>MOLECULE
JA1
   44    45     1     0     0
SMALL
No Charge or Current Charge


@<TRIPOS>ATOM
      1 C           -0.5780    -2.4740     0.1370 ca         1 JA1       0.154100
      2 N            5.8180     1.8770    -0.8240 no         1 JA1       0.701200
      3 O           -0.2630    -3.5980    -0.5680 oh         1 JA1      -0.526100
      4 C1           0.4440    -1.6250     0.6040 ca         1 JA1      -0.021900
      5 O1           1.7620    -1.9500     0.3550 os         1 JA1      -0.249200
      6 C2           2.7260    -1.0080     0.0700 ca         1 JA1       0.176100
      7 O2           6.9470     1.6890    -0.3530 o          1 JA1      -0.403000
      8 C3           4.0210    -1.1880     0.5740 ca         1 JA1      -0.176000
      9 O3           5.5260     2.8480    -1.5340 o          1 JA1      -0.403000
     10 C4           5.0310    -0.2520     0.2890 ca         1 JA1      -0.010000
     11 C5           4.7470     0.8760    -0.5170 ca         1 JA1      -0.218200
     12 C6           3.4400     1.0450    -1.0340 ca         1 JA1      -0.010000
     13 C7           2.4380     0.1030    -0.7430 ca         1 JA1      -0.176000
     14 C8           0.1090    -0.4730     1.3460 ca         1 JA1      -0.077000
     15 C9          -1.2400    -0.1680     1.5960 ca         1 JA1      -0.138000
     16 C10         -2.2630    -1.0100     1.1200 ca         1 JA1      -0.028300
     17 C11         -3.7230    -0.6710     1.3870 c3         1 JA1      -0.036100
     18 C12         -4.3260     0.2130     0.2760 c3         1 JA1      -0.072400
     19 C13         -5.8080     0.5730     0.5220 c3         1 JA1      -0.076400
     20 C14         -6.4080     1.4580    -0.5920 c3         1 JA1      -0.075400
     21 C15         -7.8900     1.8180    -0.3470 c3         1 JA1      -0.075400
     22 C16         -8.4890     2.7010    -1.4580 c3         1 JA1      -0.089100
     23 C17         -1.9240    -2.1650     0.3900 ca         1 JA1      -0.143000
     24 HO           0.7170    -3.6340    -0.6260 ho         1 JA1       0.481000
     25 H3           4.2430    -2.0540     1.1920 ha         1 JA1       0.142500
     26 H4           6.0280    -0.4120     0.6970 ha         1 JA1       0.153000
     27 H6           3.1930     1.8990    -1.6640 ha         1 JA1       0.153000
     28 H7           1.4410     0.2350    -1.1540 ha         1 JA1       0.142500
     29 H8           0.8890     0.1810     1.7300 ha         1 JA1       0.129000
     30 H9          -1.4910     0.7260     2.1640 ha         1 JA1       0.123000
     31 H11         -4.3130    -1.5920     1.4750 hc         1 JA1       0.052200
     32 H11A        -3.8190    -0.1550     2.3510 hc         1 JA1       0.052200
     33 H12         -3.7390     1.1360     0.1950 hc         1 JA1       0.043700
     34 H12A        -4.2360    -0.3080    -0.6850 hc         1 JA1       0.043700
     35 H13         -6.3940    -0.3510     0.6030 hc         1 JA1       0.038200
     36 H13A        -5.8970     1.0940     1.4830 hc         1 JA1       0.038200
     37 H14         -5.8220     2.3820    -0.6730 hc         1 JA1       0.038700
     38 H14A        -6.3190     0.9370    -1.5540 hc         1 JA1       0.038700
     39 H15         -8.4800     0.8960    -0.2670 hc         1 JA1       0.036700
     40 H15A        -7.9830     2.3410     0.6130 hc         1 JA1       0.036700
     41 H16         -7.9410     3.6480    -1.5390 hc         1 JA1       0.032367
     42 H16A        -8.4420     2.1900    -2.4270 hc         1 JA1       0.032367
     43 H16B        -9.5390     2.9290    -1.2410 hc         1 JA1       0.032367
     44 H17         -2.7040    -2.8240     0.0170 ha         1 JA1       0.136000
@<TRIPOS>BOND
     1     1     3 1   
     2     1     4 ar  
     3     1    23 ar  
     4     2     7 1   
     5     2     9 1   
     6     2    11 1   
     7     3    24 1   
     8     4     5 1   
     9     4    14 ar  
    10     5     6 1   
    11     6     8 ar  
    12     6    13 ar  
    13     8    10 ar  
    14     8    25 1   
    15    10    11 ar  
    16    10    26 1   
    17    11    12 ar  
    18    12    13 ar  
    19    12    27 1   
    20    13    28 1   
    21    14    15 ar  
    22    14    29 1   
    23    15    16 ar  
    24    15    30 1   
    25    16    17 1   
    26    16    23 ar  
    27    17    18 1   
    28    17    31 1   
    29    17    32 1   
    30    18    19 1   
    31    18    33 1   
    32    18    34 1   
    33    19    20 1   
    34    19    35 1   
    35    19    36 1   
    36    20    21 1   
    37    20    37 1   
    38    20    38 1   
    39    21    22 1   
    40    21    39 1   
    41    21    40 1   
    42    22    41 1   
    43    22    42 1   
    44    22    43 1   
    45    23    44 1   
@<TRIPOS>SUBSTRUCTURE
     1 JA1         1 TEMP              0 ****  ****    0 ROOT
