@<TRIPOS>MOLECULE
JA2
   32    33     1     0     0
SMALL
abcg2


@<TRIPOS>ATOM
      1 N1          -1.2610    -1.0040    -0.3160 na         1 JA2      -0.316600
      2 C2          -2.5160    -0.4640    -0.3950 ca         1 JA2      -0.079200
      3 C3          -2.5640     0.4670     0.6570 ca         1 JA2       0.069400
      4 C4          -3.7230     1.2120     0.8700 ca         1 JA2      -0.048000
      5 C5          -4.7980     0.9990     0.0230 ca         1 JA2      -0.136000
      6 C6          -4.7320     0.0630    -1.0200 ca         1 JA2      -0.094000
      7 C7          -3.5890    -0.6860    -1.2490 ca         1 JA2      -0.117000
      8 C8          -0.6220    -0.4150     0.7300 cc         1 JA2       0.417800
      9 N9          -1.3670     0.4710     1.3360 nd         1 JA2      -0.575100
     10 C10          0.7890    -0.7430     1.0710 c3         1 JA2      -0.096700
     11 C11          1.7880    -0.0600     0.1320 c3         1 JA2      -0.075400
     12 C12          3.2290    -0.4280     0.4630 c3         1 JA2      -0.076400
     13 C13          4.2370     0.2640    -0.4440 c3         1 JA2      -0.078400
     14 C14          5.6740    -0.1250    -0.1310 c3         1 JA2       0.150800
     15 N15          6.6060     0.5760    -1.0020 n8         1 JA2      -0.995200
     16 HN1         -0.8790    -1.7230    -0.9110 hn         1 JA2       0.354000
     17 H4          -3.7780     1.9340     1.6740 ha         1 JA2       0.128000
     18 H5          -5.7100     1.5640     0.1660 ha         1 JA2       0.113000
     19 H6          -5.5930    -0.0770    -1.6590 ha         1 JA2       0.111000
     20 H7          -3.5400    -1.4080    -2.0530 ha         1 JA2       0.115000
     21 H10          0.9720    -0.4280     2.0990 hc         1 JA2       0.063700
     22 H10A         0.9320    -1.8260     1.0350 hc         1 JA2       0.063700
     23 H11          1.5710    -0.3390    -0.9030 hc         1 JA2       0.047700
     24 H11A         1.6590     1.0240     0.1960 hc         1 JA2       0.047700
     25 H12          3.4380    -0.1700     1.5060 hc         1 JA2       0.038200
     26 H12A         3.3490    -1.5140     0.3870 hc         1 JA2       0.038200
     27 H13          4.0180     0.0150    -1.4880 hc         1 JA2       0.047700
     28 H13A         4.1320     1.3500    -0.3550 hc         1 JA2       0.047700
     29 H14          5.9010     0.1500     0.9030 h1         1 JA2       0.025700
     30 H14A         5.7630    -1.2200    -0.1830 h1         1 JA2       0.025700
     31 HN15         7.5550     0.3130    -0.7660 hn         1 JA2       0.392000
     32 HN1A         6.4700     0.2650    -1.9560 hn         1 JA2       0.392000
@<TRIPOS>BOND
     1     1     2 1   
     2     1     8 1   
     3     1    16 1   
     4     2     3 ar  
     5     2     7 ar  
     6     3     4 ar  
     7     3     9 1   
     8     4     5 ar  
     9     4    17 1   
    10     5     6 ar  
    11     5    18 1   
    12     6     7 ar  
    13     6    19 1   
    14     7    20 1   
    15     8     9 2   
    16     8    10 1   
    17    10    11 1   
    18    10    21 1   
    19    10    22 1   
    20    11    12 1   
    21    11    23 1   
    22    11    24 1   
    23    12    13 1   
    24    12    25 1   
    25    12    26 1   
    26    13    14 1   
    27    13    27 1   
    28    13    28 1   
    29    14    15 1   
    30    14    29 1   
    31    14    30 1   
    32    15    31 1   
    33    15    32 1   
@<TRIPOS>SUBSTRUCTURE
     1 JA2         1 TEMP              0 ****  ****    0 ROOT
