@<TRIPOS>MOLECULE
JA2
   32    33     1     0     0
SMALL
No Charge or Current Charge


@<TRIPOS>ATOM
      1 N1          -1.3550    -1.0240    -0.3630 na         1 JA2      -0.316600
      2 C2          -2.5910    -0.4560    -0.3780 ca         1 JA2      -0.079200
      3 C3          -2.6110     0.4660     0.6290 ca         1 JA2       0.069400
      4 C4          -3.7620     1.2300     0.8740 ca         1 JA2      -0.048000
      5 C5          -4.8930     1.0190     0.0530 ca         1 JA2      -0.136000
      6 C6          -4.8560     0.0590    -0.9880 ca         1 JA2      -0.094000
      7 C7          -3.6860    -0.6970    -1.2150 ca         1 JA2      -0.117000
      8 C8          -0.6440    -0.4220     0.6710 cc         1 JA2       0.417800
      9 N9          -1.3930     0.5040     1.3040 nd         1 JA2      -0.575100
     10 C10          0.7780    -0.7650     1.0220 c3         1 JA2      -0.096700
     11 C11          1.8130    -0.0730     0.1060 c3         1 JA2      -0.075400
     12 C12          3.2730    -0.4250     0.4680 c3         1 JA2      -0.076400
     13 C13          4.3080     0.2670    -0.4480 c3         1 JA2      -0.078400
     14 C14          5.7630    -0.0870    -0.0810 c3         1 JA2       0.150800
     15 N15          6.7260     0.5890    -0.9690 n8         1 JA2      -0.995200
     16 HN1         -1.0060    -1.7450    -0.9800 hn         1 JA2       0.354000
     17 H4          -3.7800     1.9640     1.6760 ha         1 JA2       0.128000
     18 H5          -5.7980     1.5990     0.2230 ha         1 JA2       0.113000
     19 H6          -5.7310    -0.0960    -1.6140 ha         1 JA2       0.111000
     20 H7          -3.6410    -1.4380    -2.0100 ha         1 JA2       0.115000
     21 H10          0.9730    -0.4830     2.0640 hc         1 JA2       0.063700
     22 H10A         0.9120    -1.8520     0.9650 hc         1 JA2       0.063700
     23 H11          1.6200    -0.3590    -0.9360 hc         1 JA2       0.047700
     24 H11A         1.6770     1.0140     0.1690 hc         1 JA2       0.047700
     25 H12          3.4660    -0.1380     1.5090 hc         1 JA2       0.038200
     26 H12A         3.4080    -1.5120     0.4050 hc         1 JA2       0.038200
     27 H13          4.1150    -0.0210    -1.4890 hc         1 JA2       0.047700
     28 H13A         4.1740     1.3540    -0.3840 hc         1 JA2       0.047700
     29 H14          5.9680     0.2160     0.9550 h1         1 JA2       0.025700
     30 H14A         5.9120    -1.1730    -0.1620 h1         1 JA2       0.025700
     31 HN15         7.6760     0.2780    -0.7310 hn         1 JA2       0.392000
     32 HN1A         6.5940     0.2450    -1.9280 hn         1 JA2       0.392000
@<TRIPOS>BOND
     1     1     2 1   
     2     1     8 1   
     3     1    16 1   
     4     2     3 ar  
     5     2     7 ar  
     6     3     4 ar  
     7     3     9 1   
     8     4     5 ar  
     9     4    17 1   
    10     5     6 ar  
    11     5    18 1   
    12     6     7 ar  
    13     6    19 1   
    14     7    20 1   
    15     8     9 2   
    16     8    10 1   
    17    10    11 1   
    18    10    21 1   
    19    10    22 1   
    20    11    12 1   
    21    11    23 1   
    22    11    24 1   
    23    12    13 1   
    24    12    25 1   
    25    12    26 1   
    26    13    14 1   
    27    13    27 1   
    28    13    28 1   
    29    14    15 1   
    30    14    29 1   
    31    14    30 1   
    32    15    31 1   
    33    15    32 1   
@<TRIPOS>SUBSTRUCTURE
     1 JA2         1 TEMP              0 ****  ****    0 ROOT
