@<TRIPOS>MOLECULE
JA3
   29    30     1     0     0
SMALL
abcg2


@<TRIPOS>ATOM
      1 F1           2.0420    -2.3160    -0.7990 f          1 JA3      -0.177000
      2 C8           1.8050    -1.0060    -0.6010 ca         1 JA3       0.167000
      3 C9           2.8680    -0.1590    -0.3620 ca         1 JA3      -0.095300
      4 C10          4.2850    -0.6520    -0.2770 c3         1 JA3      -0.024100
      5 C11          4.6350    -1.1830     1.1110 c3         1 JA3      -0.087100
      6 C12          2.5570     1.1860    -0.1590 ca         1 JA3      -0.158000
      7 C            1.2570     1.6610    -0.1910 ca         1 JA3       0.114100
      8 O            0.9220     2.9540     0.0030 oh         1 JA3      -0.510100
      9 C7           0.4910    -0.5750    -0.6540 ca         1 JA3      -0.183000
     10 C1           0.2170     0.7630    -0.4440 ca         1 JA3       0.116100
     11 O1          -1.0350     1.3040    -0.5010 os         1 JA3      -0.208200
     12 C2          -2.1120     0.4790    -0.4210 ca         1 JA3       0.011100
     13 C6          -2.4660    -0.1440     0.7730 ca         1 JA3       0.561200
     14 F           -1.6820     0.0330     1.8350 f          1 JA3      -0.211200
     15 N           -3.5120    -0.8950     0.9320 nb         1 JA3      -0.697000
     16 C5          -4.3100    -1.0870    -0.1180 ca         1 JA3       0.366900
     17 C4          -4.0670    -0.5220    -1.3540 ca         1 JA3      -0.171000
     18 C3          -2.9390     0.2750    -1.5070 ca         1 JA3      -0.059000
     19 H7          -0.2940    -1.2900    -0.8680 ha         1 JA3       0.142000
     20 H101         4.4610    -1.4290    -1.0220 hc         1 JA3       0.051200
     21 H102         4.9600     0.1660    -0.5310 hc         1 JA3       0.051200
     22 H12          3.3690     1.8800     0.0300 ha         1 JA3       0.120000
     23 H111         5.6700    -1.5250     1.1420 hc         1 JA3       0.037700
     24 H112         4.5150    -0.4100     1.8690 hc         1 JA3       0.037700
     25 H113         4.0000    -2.0240     1.3890 hc         1 JA3       0.037700
     26 H            1.7100     3.4760     0.1750 ho         1 JA3       0.462000
     27 H3          -2.7070     0.7420    -2.4550 ha         1 JA3       0.139000
     28 H5          -5.1770    -1.7140     0.0430 h4         1 JA3       0.030100
     29 H4          -4.7340    -0.7050    -2.1820 ha         1 JA3       0.134000
@<TRIPOS>BOND
     1     1     2 1   
     2     2     3 ar  
     3     2     9 ar  
     4     3     4 1   
     5     3     6 ar  
     6     4     5 1   
     7     4    20 1   
     8     4    21 1   
     9     5    23 1   
    10     5    24 1   
    11     5    25 1   
    12     6     7 ar  
    13     6    22 1   
    14     7     8 1   
    15     7    10 ar  
    16     8    26 1   
    17     9    10 ar  
    18     9    19 1   
    19    10    11 1   
    20    11    12 1   
    21    12    13 ar  
    22    12    18 ar  
    23    13    14 1   
    24    13    15 ar  
    25    15    16 ar  
    26    16    17 ar  
    27    16    28 1   
    28    17    18 ar  
    29    17    29 1   
    30    18    27 1   
@<TRIPOS>SUBSTRUCTURE
     1 JA3         1 TEMP              0 ****  ****    0 ROOT
