@<TRIPOS>MOLECULE
JA3
   29    30     1     0     0
SMALL
No Charge or Current Charge


@<TRIPOS>ATOM
      1 F1           2.1970    -2.3280    -0.9810 f          1 JA3      -0.177000
      2 C8           1.9070    -1.0270    -0.7550 ca         1 JA3       0.167000
      3 C9           2.9170    -0.1310    -0.3420 ca         1 JA3      -0.095300
      4 C10          4.3530    -0.6040    -0.1350 c3         1 JA3      -0.024100
      5 C11          4.5670    -1.2170     1.2620 c3         1 JA3      -0.087100
      6 C12          2.5870     1.2210    -0.1160 ca         1 JA3      -0.158000
      7 C            1.2670     1.6730    -0.2980 ca         1 JA3       0.114100
      8 O            0.9700     2.9910    -0.0720 oh         1 JA3      -0.510100
      9 C7           0.5890    -0.5850    -0.9380 ca         1 JA3      -0.183000
     10 C1           0.2610     0.7650    -0.7010 ca         1 JA3       0.116100
     11 O1          -1.0320     1.2110    -0.8850 os         1 JA3      -0.208200
     12 C2          -2.1380     0.4400    -0.5830 ca         1 JA3       0.011100
     13 C6          -2.2860    -0.2300     0.6580 ca         1 JA3       0.561200
     14 F           -1.3450    -0.1410     1.6260 f          1 JA3      -0.211200
     15 N           -3.3620    -0.9830     0.9870 nb         1 JA3      -0.697000
     16 C5          -4.3460    -1.0880     0.0650 ca         1 JA3       0.366900
     17 C4          -4.2950    -0.4500    -1.1880 ca         1 JA3      -0.171000
     18 C3          -3.1750     0.3330    -1.5230 ca         1 JA3      -0.059000
     19 H7          -0.1680    -1.2900    -1.2680 ha         1 JA3       0.142000
     20 H101         4.6270    -1.3450    -0.8970 hc         1 JA3       0.051200
     21 H102         5.0520     0.2310    -0.2650 hc         1 JA3       0.051200
     22 H12          3.3600     1.9160     0.2020 ha         1 JA3       0.120000
     23 H111         5.6080    -1.5400     1.3830 hc         1 JA3       0.037700
     24 H112         4.3420    -0.4820     2.0440 hc         1 JA3       0.037700
     25 H113         3.9170    -2.0870     1.4080 hc         1 JA3       0.037700
     26 H            1.7900     3.4570     0.1970 ho         1 JA3       0.462000
     27 H3          -3.1110     0.8380    -2.4840 ha         1 JA3       0.139000
     28 H5          -5.2060    -1.6970     0.3410 h4         1 JA3       0.030100
     29 H4          -5.1190    -0.5650    -1.8870 ha         1 JA3       0.134000
@<TRIPOS>BOND
     1     1     2 1   
     2     2     3 ar  
     3     2     9 ar  
     4     3     4 1   
     5     3     6 ar  
     6     4     5 1   
     7     4    20 1   
     8     4    21 1   
     9     5    23 1   
    10     5    24 1   
    11     5    25 1   
    12     6     7 ar  
    13     6    22 1   
    14     7     8 1   
    15     7    10 ar  
    16     8    26 1   
    17     9    10 ar  
    18     9    19 1   
    19    10    11 1   
    20    11    12 1   
    21    12    13 ar  
    22    12    18 ar  
    23    13    14 1   
    24    13    15 ar  
    25    15    16 ar  
    26    16    17 ar  
    27    16    28 1   
    28    17    18 ar  
    29    17    29 1   
    30    18    27 1   
@<TRIPOS>SUBSTRUCTURE
     1 JA3         1 TEMP              0 ****  ****    0 ROOT
