@<TRIPOS>MOLECULE
JA4
   59    62     1     0     0
SMALL
No Charge or Current Charge


@<TRIPOS>ATOM
      1 C10          5.0820     2.6370    -1.2310 cc         1 JA4      -0.314200
      2 C13          2.6210    -0.7150     1.7030 ca         1 JA4       0.254000
      3 C20         -0.2950     0.0790    -0.0250 ca         1 JA4      -0.159300
      4 C21          0.2290     0.7750    -1.1410 ca         1 JA4       0.167100
      5 C24          0.7220     2.0900    -0.9800 ca         1 JA4      -0.210000
      6 C26          0.1710     2.0250     1.3820 ca         1 JA4      -0.162000
      7 C02         -2.3440    -1.3610     0.3650 c          1 JA4       0.621100
      8 C03         -0.8530    -1.3470    -0.1590 c3         1 JA4       0.201800
      9 N04          0.0220    -2.3300     0.5690 n7         1 JA4      -0.861300
     10 S05          1.5560    -2.6830     0.0120 sy         1 JA4       1.177600
     11 C06          2.4830    -1.1980     0.3850 ca         1 JA4      -0.321500
     12 C07          3.0870    -0.4970    -0.6810 ca         1 JA4       0.076000
     13 C08          3.7940     0.6920    -0.4310 ca         1 JA4      -0.172800
     14 C09          4.4120     1.4630    -1.5170 cd         1 JA4      -0.063200
     15 C11          3.9060     1.1740     0.8800 ca         1 JA4       0.150600
     16 C12          3.3310     0.4710     1.9440 ca         1 JA4      -0.189000
     17 Cl1          1.8960    -1.5240     3.0930 cl         1 JA4      -0.171000
     18 N15          4.6050     2.3740     1.0940 ns         1 JA4      -0.374100
     19 C16          5.2060     3.1580     0.1420 c          1 JA4       0.566200
     20 O17          5.7900     4.1900     0.4270 o          1 JA4      -0.555000
     21 O18          2.0120    -3.7830     0.8640 o          1 JA4      -0.532500
     22 O19          1.4360    -2.8540    -1.4370 o          1 JA4      -0.532500
     23 O22          0.2610     0.1370    -2.3660 os         1 JA4      -0.320100
     24 C23          0.7640     0.7680    -3.5550 c3         1 JA4       0.152900
     25 C25          0.6960     2.7090     0.2780 ca         1 JA4      -0.073000
     26 C27         -0.3250     0.7210     1.2330 ca         1 JA4      -0.059000
     27 C29         -3.2190    -0.5310    -1.8980 c3         1 JA4      -0.064000
     28 C30         -3.4370    -1.7450    -2.8330 c          1 JA4       0.705000
     29 O31         -4.3240    -1.6780    -3.6710 o          1 JA4      -0.715500
     30 O32         -2.7480    -2.7390    -2.6560 o          1 JA4      -0.715500
     31 C33         -4.7480    -0.6440     0.1040 c3         1 JA4       0.167300
     32 C34         -4.9770     0.7940     0.4870 cc         1 JA4      -0.201300
     33 C35         -5.8720     1.6810    -0.0580 cd         1 JA4      -0.148000
     34 C36         -5.8220     2.9720     0.5330 cd         1 JA4      -0.137000
     35 C37         -4.8880     3.0810     1.5310 cc         1 JA4      -0.282000
     36 S38         -4.0320     1.5590     1.7650 ss         1 JA4       0.243000
     37 H101         5.5510     3.2360    -2.0040 ha         1 JA4       0.207000
     38 H241         1.1390     2.6430    -1.8160 ha         1 JA4       0.115000
     39 H261         0.1490     2.5060     2.3580 ha         1 JA4       0.109000
     40 H031        -0.9170    -1.6320    -1.2160 h1         1 JA4       0.155700
     41 H041         0.2000    -1.9840     1.5080 hn         1 JA4       0.505000
     42 H071         2.9980    -0.8570    -1.7050 ha         1 JA4       0.159000
     43 H091         4.3470     1.1160    -2.5470 ha         1 JA4       0.196000
     44 H121         3.4200     0.8470     2.9590 ha         1 JA4       0.131000
     45 H151         4.6720     2.7040     2.0470 hn         1 JA4       0.326500
     46 H232         1.8180     1.0480    -3.4320 h1         1 JA4       0.043033
     47 H233         0.6910     0.0820    -4.4080 h1         1 JA4       0.043033
     48 H231         0.1840     1.6690    -3.7930 h1         1 JA4       0.043033
     49 H251         1.0840     3.7180     0.3970 ha         1 JA4       0.101000
     50 H271        -0.7290     0.2110     2.1050 ha         1 JA4       0.129000
     51 H292        -3.9420     0.2450    -2.1810 h1         1 JA4       0.037700
     52 H291        -2.2280    -0.1130    -2.0950 h1         1 JA4       0.037700
     53 H332        -5.4830    -0.9390    -0.6570 h1         1 JA4       0.072700
     54 H331        -4.9140    -1.2880     0.9760 h1         1 JA4       0.072700
     55 H351        -6.5510     1.4230    -0.8640 ha         1 JA4       0.130000
     56 H361        -6.4610     3.7940     0.2230 ha         1 JA4       0.118000
     57 H371        -4.6360     3.9360     2.1440 h4         1 JA4       0.133000
     58 O01         -2.6010    -1.7590     1.5020 o          1 JA4      -0.666100
     59 N28         -3.3860    -0.8260    -0.4450 n          1 JA4      -0.340800
@<TRIPOS>BOND
     1     1    14 2   
     2     1    19 1   
     3     1    37 1   
     4     2    11 ar  
     5     2    16 ar  
     6     2    17 1   
     7     3     4 ar  
     8     3     8 1   
     9     3    26 ar  
    10     4     5 ar  
    11     4    23 1   
    12     5    25 ar  
    13     5    38 1   
    14     6    25 ar  
    15     6    26 ar  
    16     6    39 1   
    17     7     8 1   
    18     7    58 2   
    19     7    59 1   
    20     8     9 1   
    21     8    40 1   
    22     9    10 1   
    23     9    41 1   
    24    10    11 1   
    25    10    21 2   
    26    10    22 2   
    27    11    12 ar  
    28    12    13 ar  
    29    12    42 1   
    30    13    14 1   
    31    13    15 ar  
    32    14    43 1   
    33    15    16 ar  
    34    15    18 1   
    35    16    44 1   
    36    18    19 1   
    37    18    45 1   
    38    19    20 2   
    39    23    24 1   
    40    24    46 1   
    41    24    47 1   
    42    24    48 1   
    43    25    49 1   
    44    26    50 1   
    45    27    28 1   
    46    27    51 1   
    47    27    52 1   
    48    27    59 1   
    49    28    29 1   
    50    28    30 1   
    51    31    32 1   
    52    31    53 1   
    53    31    54 1   
    54    31    59 1   
    55    32    33 2   
    56    32    36 1   
    57    33    34 1   
    58    33    55 1   
    59    34    35 2   
    60    34    56 1   
    61    35    36 1   
    62    35    57 1   
@<TRIPOS>SUBSTRUCTURE
     1 JA4         1 TEMP              0 ****  ****    0 ROOT
