@<TRIPOS>MOLECULE
JA4
   59    62     1     0     0
SMALL
abcg2


@<TRIPOS>ATOM
      1 C10          5.3530     1.7850    -1.8770 cc         1 JA4      -0.314200
      2 C13          2.4540    -0.2960     1.6370 ca         1 JA4       0.254000
      3 C20         -0.3860     0.3780     0.0870 ca         1 JA4      -0.159300
      4 C21          0.3890     0.9940    -0.9060 ca         1 JA4       0.167100
      5 C24          0.9030     2.2700    -0.6960 ca         1 JA4      -0.210000
      6 C26         -0.1220     2.3360     1.4840 ca         1 JA4      -0.162000
      7 C02         -2.4050    -1.1020     0.2340 c          1 JA4       0.621100
      8 C03         -0.9100    -1.0360    -0.0950 c3         1 JA4       0.201800
      9 N04         -0.2590    -2.0070     0.7750 n7         1 JA4      -0.861300
     10 S05          1.2550    -2.5420     0.4850 sy         1 JA4       1.177600
     11 C06          2.3380    -1.1330     0.5150 ca         1 JA4      -0.321500
     12 C07          3.0550    -0.8340    -0.6230 ca         1 JA4       0.076000
     13 C08          3.8640     0.2990    -0.6810 ca         1 JA4      -0.172800
     14 C09          4.6190     0.6580    -1.8450 cd         1 JA4      -0.063200
     15 C11          3.9300     1.1490     0.4320 ca         1 JA4       0.150600
     16 C12          3.2300     0.8360     1.6000 ca         1 JA4      -0.189000
     17 CL1          1.6200    -0.6490     3.1010 cl         1 JA4      -0.171000
     18 N15          4.6850     2.2800     0.3580 ns         1 JA4      -0.374100
     19 C16          5.4180     2.6850    -0.7360 c          1 JA4       0.566200
     20 O17          6.0590     3.7230    -0.7100 o          1 JA4      -0.555000
     21 O18          1.5930    -3.4220     1.5880 o          1 JA4      -0.532500
     22 O19          1.2880    -3.0480    -0.8770 o          1 JA4      -0.532500
     23 O22          0.5920     0.2840    -2.0300 os         1 JA4      -0.320100
     24 C23          1.1350     0.9290    -3.1630 c3         1 JA4       0.152900
     25 C25          0.6490     2.9300     0.4990 ca         1 JA4      -0.073000
     26 C27         -0.6370     1.0660     1.2660 ca         1 JA4      -0.059000
     27 C29         -2.8910    -0.0250    -1.9320 c3         1 JA4      -0.064000
     28 C30         -2.6270    -1.0670    -3.0420 c          1 JA4       0.705000
     29 O31         -2.4570    -0.5810    -4.1750 o          1 JA4      -0.715500
     30 O32         -2.5920    -2.2630    -2.7060 o          1 JA4      -0.715500
     31 C33         -4.6810    -0.7000    -0.3540 c3         1 JA4       0.167300
     32 C34         -5.1900     0.4210     0.4940 cc         1 JA4      -0.201300
     33 C35         -6.0470     1.4140     0.1190 cd         1 JA4      -0.148000
     34 C36         -6.3250     2.3390     1.1630 cd         1 JA4      -0.137000
     35 C37         -5.6690     2.0300     2.3140 cc         1 JA4      -0.282000
     36 S38         -4.7120     0.6170     2.1400 ss         1 JA4       0.243000
     37 H101         5.9240     2.0590    -2.7530 ha         1 JA4       0.207000
     38 H241         1.5060     2.7610    -1.4480 ha         1 JA4       0.115000
     39 H261        -0.3240     2.8520     2.4130 ha         1 JA4       0.109000
     40 H031        -0.7660    -1.3740    -1.1200 h1         1 JA4       0.155700
     41 H041        -0.5010    -1.9520     1.7580 hn         1 JA4       0.505000
     42 H071         2.9920    -1.4740    -1.4920 ha         1 JA4       0.159000
     43 H091         4.5890     0.0000    -2.7050 ha         1 JA4       0.196000
     44 H121         3.2890     1.4840     2.4630 ha         1 JA4       0.131000
     45 H151         4.7180     2.8860     1.1680 hn         1 JA4       0.326500
     46 H232         2.1610     1.2660    -2.9950 h1         1 JA4       0.043033
     47 H233         1.1380     0.1940    -3.9630 h1         1 JA4       0.043033
     48 H231         0.5300     1.7860    -3.4690 h1         1 JA4       0.043033
     49 H251         1.0620     3.9180     0.6540 ha         1 JA4       0.101000
     50 H271        -1.2400     0.5980     2.0350 ha         1 JA4       0.129000
     51 H292        -3.6930     0.6450    -2.2450 h1         1 JA4       0.037700
     52 H291        -2.0170     0.6210    -1.8350 h1         1 JA4       0.037700
     53 H332        -5.2250    -0.6890    -1.2980 h1         1 JA4       0.072700
     54 H331        -4.8790    -1.6660     0.1100 h1         1 JA4       0.072700
     55 H351        -6.4690     1.4770    -0.8750 ha         1 JA4       0.130000
     56 H361        -6.9800     3.1920     1.0570 ha         1 JA4       0.118000
     57 H371        -5.6960     2.5600     3.2540 h4         1 JA4       0.133000
     58 O01         -2.7750    -1.5820     1.3010 o          1 JA4      -0.666100
     59 N28         -3.2610    -0.5810    -0.6500 n          1 JA4      -0.340800
@<TRIPOS>BOND
     1     1    14 2   
     2     1    19 1   
     3     1    37 1   
     4     2    11 ar  
     5     2    16 ar  
     6     2    17 1   
     7     3     4 ar  
     8     3     8 1   
     9     3    26 ar  
    10     4     5 ar  
    11     4    23 1   
    12     5    25 ar  
    13     5    38 1   
    14     6    25 ar  
    15     6    26 ar  
    16     6    39 1   
    17     7     8 1   
    18     7    58 2   
    19     7    59 1   
    20     8     9 1   
    21     8    40 1   
    22     9    10 1   
    23     9    41 1   
    24    10    11 1   
    25    10    21 2   
    26    10    22 2   
    27    11    12 ar  
    28    12    13 ar  
    29    12    42 1   
    30    13    14 1   
    31    13    15 ar  
    32    14    43 1   
    33    15    16 ar  
    34    15    18 1   
    35    16    44 1   
    36    18    19 1   
    37    18    45 1   
    38    19    20 2   
    39    23    24 1   
    40    24    46 1   
    41    24    47 1   
    42    24    48 1   
    43    25    49 1   
    44    26    50 1   
    45    27    28 1   
    46    27    51 1   
    47    27    52 1   
    48    27    59 1   
    49    28    29 1   
    50    28    30 1   
    51    31    32 1   
    52    31    53 1   
    53    31    54 1   
    54    31    59 1   
    55    32    33 2   
    56    32    36 1   
    57    33    34 1   
    58    33    55 1   
    59    34    35 2   
    60    34    56 1   
    61    35    36 1   
    62    35    57 1   
@<TRIPOS>SUBSTRUCTURE
     1 JA4         1 TEMP              0 ****  ****    0 ROOT
