@<TRIPOS>MOLECULE
JA5
   23    24     1     0     0
SMALL
No Charge or Current Charge


@<TRIPOS>ATOM
      1 C10          0.7090     1.3750     0.0770 cc         1 JA5      -0.048000
      2 C13          5.2120    -0.6450    -0.2140 c3         1 JA5       0.156900
      3 O01         -4.8460     0.6960    -0.8940 oh         1 JA5      -0.655000
      4 C02         -4.2860     0.2150     0.3310 c3         1 JA5       0.231900
      5 C03         -2.7870     0.1600     0.2350 cd         1 JA5      -0.199300
      6 C04         -1.9070     1.2370     0.2140 cc         1 JA5      -0.050000
      7 C05         -0.5690     0.7950     0.1310 cc         1 JA5      -0.151000
      8 C06         -0.4470    -0.5190     0.0920 cd         1 JA5      -0.199000
      9 S07         -1.9400    -1.4340     0.1500 ss         1 JA5       0.191000
     10 N08          0.8900    -0.8830     0.0110 na         1 JA5      -0.062000
     11 C09          1.6260     0.3320     0.0020 cd         1 JA5      -0.230600
     12 C11          3.0940     0.5020    -0.0730 c          1 JA5       0.632700
     13 O12          3.7740    -0.6870    -0.1380 os         1 JA5      -0.459100
     14 O14          3.6430     1.5960    -0.0750 o          1 JA5      -0.478000
     15 H1           0.9210     2.4410     0.0920 ha         1 JA5       0.153000
     16 H2           5.5410    -0.1040    -1.1110 h1         1 JA5       0.050033
     17 H3           5.6360    -0.1480     0.6680 h1         1 JA5       0.050033
     18 H4           5.6220    -1.6610    -0.2610 h1         1 JA5       0.050033
     19 H5          -5.8200     0.7170    -0.7670 ho         1 JA5       0.445000
     20 H6          -4.5630     0.8750     1.1640 h1         1 JA5       0.032700
     21 H7          -4.6710    -0.7880     0.5600 h1         1 JA5       0.032700
     22 H8          -2.1940     2.2830     0.2560 ha         1 JA5       0.137000
     23 H9           1.2710    -1.8260    -0.0320 hn         1 JA5       0.371000
@<TRIPOS>BOND
     1     1     7 1   
     2     1    11 2   
     3     1    15 1   
     4     2    13 1   
     5     2    16 1   
     6     2    17 1   
     7     2    18 1   
     8     3     4 1   
     9     3    19 1   
    10     4     5 1   
    11     4    20 1   
    12     4    21 1   
    13     5     6 2   
    14     5     9 1   
    15     6     7 1   
    16     6    22 1   
    17     7     8 2   
    18     8     9 1   
    19     8    10 1   
    20    10    11 1   
    21    10    23 1   
    22    11    12 1   
    23    12    13 1   
    24    12    14 2   
@<TRIPOS>SUBSTRUCTURE
     1 JA5         1 TEMP              0 ****  ****    0 ROOT
