@<TRIPOS>MOLECULE
JA5
   23    24     1     0     0
SMALL
bcc


@<TRIPOS>ATOM
      1 C10          0.7930     1.5250     0.3350 cc         1 JA5      -0.066000
      2 C13          5.0290    -0.8140    -0.2930 c3         1 JA5       0.133700
      3 O01         -4.7310    -0.3620    -0.8750 oh         1 JA5      -0.592800
      4 C02         -4.2270     0.3500     0.2310 c3         1 JA5       0.208700
      5 C03         -2.7410     0.3800     0.1420 cd         1 JA5      -0.054400
      6 C04         -1.8940     1.4130     0.3620 cc         1 JA5      -0.068000
      7 C05         -0.5220     1.0190     0.2560 cc         1 JA5      -0.151000
      8 C06         -0.4060    -0.3310    -0.0560 cd         1 JA5      -0.003400
      9 S07         -1.9150    -1.1300    -0.2290 ss         1 JA5      -0.098800
     10 N08          0.8890    -0.6640    -0.1740 na         1 JA5      -0.113100
     11 C09          1.6400     0.4680     0.0680 cd         1 JA5      -0.179900
     12 C11          3.0940     0.4890     0.0430 c          1 JA5       0.681700
     13 O12          3.6070    -0.7030    -0.2360 os         1 JA5      -0.435900
     14 O14          3.7550     1.4810     0.2510 o          1 JA5      -0.527000
     15 H1           1.1020     2.5330     0.5590 ha         1 JA5       0.171000
     16 H2           5.4440    -0.1830    -1.0780 h1         1 JA5       0.050033
     17 H3           5.4870    -0.5520     0.6600 h1         1 JA5       0.050033
     18 H4           5.2370    -1.8550    -0.5190 h1         1 JA5       0.050033
     19 H5          -5.6330    -0.6280    -0.6740 ho         1 JA5       0.406000
     20 H6          -4.5890     1.3850     0.2670 h1         1 JA5       0.032700
     21 H7          -4.5270    -0.1240     1.1730 h1         1 JA5       0.032700
     22 H8          -2.2350     2.4120     0.5960 ha         1 JA5       0.155000
     23 H9           1.2530    -1.5780    -0.3910 hn         1 JA5       0.320700
@<TRIPOS>BOND
     1     1     7 1   
     2     1    11 2   
     3     1    15 1   
     4     2    13 1   
     5     2    16 1   
     6     2    17 1   
     7     2    18 1   
     8     3     4 1   
     9     3    19 1   
    10     4     5 1   
    11     4    20 1   
    12     4    21 1   
    13     5     6 2   
    14     5     9 1   
    15     6     7 1   
    16     6    22 1   
    17     7     8 2   
    18     8     9 1   
    19     8    10 1   
    20    10    11 1   
    21    10    23 1   
    22    11    12 1   
    23    12    13 1   
    24    12    14 2   
@<TRIPOS>SUBSTRUCTURE
     1 JA5         1 TEMP              0 ****  ****    0 ROOT
