@<TRIPOS>MOLECULE
JA6
   46    48     1     0     0
SMALL
abcg2


@<TRIPOS>ATOM
      1 C10        -18.0830    80.6940   101.0180 ca         1 JA6      -0.077000
      2 C13        -17.2630    78.4030   102.3580 ca         1 JA6      -0.151500
      3 C17        -15.8000    81.0680    98.0160 c3         1 JA6      -0.180100
      4 C22        -16.6750    83.7180   100.5840 cx         1 JA6       0.019700
      5 C24        -15.7980    84.7060   101.3000 cx         1 JA6      -0.119900
      6 C1         -13.9850    81.4660   105.0230 c5         1 JA6      -0.097900
      7 C2         -15.0300    80.5300   105.6460 c5         1 JA6      -0.080900
      8 C3         -16.2660    81.4140   105.9320 c5         1 JA6      -0.080900
      9 C4         -15.8960    82.8190   105.4260 c5         1 JA6      -0.097900
     10 C5         -14.8180    82.5740   104.3740 c5         1 JA6       0.113700
     11 C7         -14.8070    81.9910   101.9850 c          1 JA6       0.602100
     12 C8         -15.6440    81.4590   100.8050 c3         1 JA6       0.080000
     13 C9         -16.7280    80.4910   101.2480 ca         1 JA6      -0.146300
     14 C11        -19.0320    79.7770   101.4590 ca         1 JA6      -0.151500
     15 C12        -18.6050    78.6510   102.1300 ca         1 JA6       0.177000
     16 C14        -16.3360    79.3260   101.9100 ca         1 JA6      -0.077000
     17 C23        -16.4280    85.0700    99.9980 cx         1 JA6      -0.119900
     18 F21        -19.5120    77.7660   102.5710 f          1 JA6      -0.174000
     19 N6         -15.4490    82.1150   103.1480 ns         1 JA6      -0.491900
     20 N15        -16.1150    82.5490    99.9630 n          1 JA6      -0.376800
     21 O19        -17.1130    83.0490    97.9900 o          1 JA6      -0.578100
     22 O20        -13.6260    82.2570   101.8240 o          1 JA6      -0.600100
     23 H101       -18.4340    81.5710   100.4920 ha         1 JA6       0.127000
     24 H131       -16.9490    77.5040   102.8730 ha         1 JA6       0.136500
     25 H171       -16.0300    81.0690    96.9540 hc         1 JA6       0.065367
     26 H1         -14.7160    81.0410    98.1350 hc         1 JA6       0.065367
     27 H172       -16.2030    80.1510    98.4480 hc         1 JA6       0.065367
     28 H221       -17.6580    83.5760   101.0250 h1         1 JA6       0.068700
     29 H242       -14.7290    84.5480   101.2970 hc         1 JA6       0.082200
     30 H241       -16.1860    85.1280   102.2170 hc         1 JA6       0.082200
     31 H012       -13.3180    80.9650   104.3210 hc         1 JA6       0.055200
     32 H011       -13.3600    81.9160   105.7980 hc         1 JA6       0.055200
     33 H021       -15.2870    79.7300   104.9490 hc         1 JA6       0.042950
     34 H022       -14.6500    80.0460   106.5460 hc         1 JA6       0.042950
     35 H032       -16.5250    81.4320   106.9910 hc         1 JA6       0.042950
     36 H031       -17.1420    81.0320   105.4060 hc         1 JA6       0.042950
     37 H042       -15.4600    83.4150   106.2300 hc         1 JA6       0.055200
     38 H041       -16.7490    83.3800   105.0400 hc         1 JA6       0.055200
     39 H051       -14.2320    83.4700   104.1590 h1         1 JA6       0.075700
     40 H081       -14.9170    80.8810   100.2310 h1         1 JA6       0.092700
     41 H111       -20.0850    79.9460   101.2810 ha         1 JA6       0.136500
     42 H141       -15.2840    79.1330   102.0850 ha         1 JA6       0.127000
     43 H232       -15.7760    85.1400    99.1390 hc         1 JA6       0.082200
     44 H231       -17.2610    85.7610    99.9840 hc         1 JA6       0.082200
     45 H061       -16.4320    81.8880   103.1800 hn         1 JA6       0.323500
     46 C16        -16.4080    82.3020    98.6420 c          1 JA6       0.606100
@<TRIPOS>BOND
     1     1    13 ar  
     2     1    14 ar  
     3     1    23 1   
     4     2    15 ar  
     5     2    16 ar  
     6     2    24 1   
     7     3    25 1   
     8     3    26 1   
     9     3    27 1   
    10     3    46 1   
    11     4     5 1   
    12     4    17 1   
    13     4    20 1   
    14     4    28 1   
    15     5    17 1   
    16     5    29 1   
    17     5    30 1   
    18     6     7 1   
    19     6    10 1   
    20     6    31 1   
    21     6    32 1   
    22     7     8 1   
    23     7    33 1   
    24     7    34 1   
    25     8     9 1   
    26     8    35 1   
    27     8    36 1   
    28     9    10 1   
    29     9    37 1   
    30     9    38 1   
    31    10    19 1   
    32    10    39 1   
    33    11    12 1   
    34    11    19 1   
    35    11    22 2   
    36    12    13 1   
    37    12    20 1   
    38    12    40 1   
    39    13    16 ar  
    40    14    15 ar  
    41    14    41 1   
    42    15    18 1   
    43    16    42 1   
    44    17    43 1   
    45    17    44 1   
    46    19    45 1   
    47    20    46 1   
    48    21    46 2   
@<TRIPOS>SUBSTRUCTURE
     1 JA6         1 TEMP              0 ****  ****    0 ROOT
