@<TRIPOS>MOLECULE
JA6
   46    48     1     0     0
SMALL
No Charge or Current Charge


@<TRIPOS>ATOM
      1 C10        -17.7430    80.5670   101.5690 ca         1 JA6      -0.077000
      2 C13        -16.6270    77.9980   101.8050 ca         1 JA6      -0.151500
      3 C17        -16.3120    80.9990    98.0380 c3         1 JA6      -0.180100
      4 C22        -16.4460    83.8710   100.6920 cx         1 JA6       0.019700
      5 C24        -15.3570    84.8670   101.0250 cx         1 JA6      -0.119900
      6 C1         -14.4410    81.2620   105.1650 c5         1 JA6      -0.097900
      7 C2         -15.8330    80.6390   105.4910 c5         1 JA6      -0.080900
      8 C3         -16.7730    81.8640   105.7410 c5         1 JA6      -0.080900
      9 C4         -15.9160    83.1300   105.4100 c5         1 JA6      -0.097900
     10 C5         -14.7910    82.6100   104.4770 c5         1 JA6       0.113700
     11 C7         -14.6770    82.0330   102.0900 c          1 JA6       0.602100
     12 C8         -15.4690    81.5340   100.8460 c3         1 JA6       0.080000
     13 C9         -16.3770    80.3680   101.2680 ca         1 JA6      -0.146300
     14 C11        -18.5410    79.4870   101.9830 ca         1 JA6      -0.151500
     15 C12        -17.9820    78.2070   102.1000 ca         1 JA6       0.177000
     16 C14        -15.8250    79.0760   101.3910 ca         1 JA6      -0.077000
     17 C23        -16.3810    85.2010    99.9730 cx         1 JA6      -0.119900
     18 F21        -18.7500    77.1700   102.4990 f          1 JA6      -0.174000
     19 N6         -15.4530    82.2810   103.2090 ns         1 JA6      -0.491900
     20 N15        -16.1820    82.5830   100.0330 n          1 JA6      -0.376800
     21 O19        -17.6460    82.9600    98.2920 o          1 JA6      -0.578100
     22 O20        -13.4600    82.1810   102.0800 o          1 JA6      -0.600100
     23 H101       -18.1940    81.5530   101.4870 ha         1 JA6       0.127000
     24 H131       -16.2000    77.0030   101.9000 ha         1 JA6       0.136500
     25 H171       -16.7420    80.9340    97.0330 hc         1 JA6       0.065367
     26 H1         -15.2180    80.9820    98.0100 hc         1 JA6       0.065367
     27 H172       -16.5580    80.1030    98.6170 hc         1 JA6       0.065367
     28 H221       -17.2520    83.7330   101.4130 h1         1 JA6       0.068700
     29 H242       -14.3450    84.6520   100.6890 hc         1 JA6       0.082200
     30 H241       -15.4200    85.3810   101.9810 hc         1 JA6       0.082200
     31 H012       -13.8280    80.6070   104.5350 hc         1 JA6       0.055200
     32 H011       -13.8700    81.4390   106.0840 hc         1 JA6       0.055200
     33 H021       -16.2000    80.0330   104.6530 hc         1 JA6       0.042950
     34 H022       -15.7850    79.9720   106.3600 hc         1 JA6       0.042950
     35 H032       -17.1380    81.8920   106.7740 hc         1 JA6       0.042950
     36 H031       -17.6610    81.8060   105.1000 hc         1 JA6       0.042950
     37 H042       -15.4810    83.5470   106.3270 hc         1 JA6       0.055200
     38 H041       -16.5080    83.9320   104.9540 hc         1 JA6       0.055200
     39 H051       -13.9430    83.3030   104.3770 h1         1 JA6       0.075700
     40 H081       -14.6860    81.1180   100.2000 h1         1 JA6       0.092700
     41 H111       -19.5920    79.6400   102.2150 ha         1 JA6       0.136500
     42 H141       -14.7730    78.9040   101.1710 ha         1 JA6       0.127000
     43 H232       -16.0510    85.2090    98.9370 hc         1 JA6       0.082200
     44 H231       -17.1380    85.9420   100.2160 hc         1 JA6       0.082200
     45 H061       -16.4440    82.0990   103.1270 hn         1 JA6       0.323500
     46 C16        -16.7890    82.2430    98.7940 c          1 JA6       0.606100
@<TRIPOS>BOND
     1     1    13 ar  
     2     1    14 ar  
     3     1    23 1   
     4     2    15 ar  
     5     2    16 ar  
     6     2    24 1   
     7     3    25 1   
     8     3    26 1   
     9     3    27 1   
    10     3    46 1   
    11     4     5 1   
    12     4    17 1   
    13     4    20 1   
    14     4    28 1   
    15     5    17 1   
    16     5    29 1   
    17     5    30 1   
    18     6     7 1   
    19     6    10 1   
    20     6    31 1   
    21     6    32 1   
    22     7     8 1   
    23     7    33 1   
    24     7    34 1   
    25     8     9 1   
    26     8    35 1   
    27     8    36 1   
    28     9    10 1   
    29     9    37 1   
    30     9    38 1   
    31    10    19 1   
    32    10    39 1   
    33    11    12 1   
    34    11    19 1   
    35    11    22 2   
    36    12    13 1   
    37    12    20 1   
    38    12    40 1   
    39    13    16 ar  
    40    14    15 ar  
    41    14    41 1   
    42    15    18 1   
    43    16    42 1   
    44    17    43 1   
    45    17    44 1   
    46    19    45 1   
    47    20    46 1   
    48    21    46 2   
@<TRIPOS>SUBSTRUCTURE
     1 JA6         1 TEMP              0 ****  ****    0 ROOT
