@<TRIPOS>MOLECULE
JA7
   70    73     1     0     0
SMALL
No Charge or Current Charge


@<TRIPOS>ATOM
      1 C10          3.2420     2.1750     0.7990 ca         1 JA7      -0.322500
      2 N12          0.6300     1.9220     0.4400 n7         1 JA7      -0.857300
      3 C13          0.6040     0.4770     0.0670 c3         1 JA7       0.194800
      4 C15         -1.0100     0.4440    -1.9570 ca         1 JA7       0.180100
      5 C17         -3.4350     0.6210    -1.5150 c3         1 JA7       0.165600
      6 C20         -6.7000     0.8730     0.7060 c3         1 JA7      -0.204400
      7 C21         -8.1900     0.7790     0.3330 c          1 JA7       0.717000
      8 C24         -1.2180     0.3080    -3.3500 ca         1 JA7      -0.212000
      9 C26          1.1700     0.0460    -3.6980 ca         1 JA7      -0.169000
     10 C28         -0.3590    -0.3940     0.9690 c          1 JA7       0.616100
     11 O01          8.7730     0.4170    -1.6930 o          1 JA7      -0.585000
     12 C02          7.7370     0.5220    -1.0570 c          1 JA7       0.567200
     13 N03          6.8710     1.5700    -1.2420 ns         1 JA7      -0.378100
     14 C04          7.2990    -0.4470    -0.0370 cc         1 JA7      -0.335200
     15 C05          6.1180    -0.2950     0.6660 cd         1 JA7      -0.033200
     16 C06          5.2560     0.8640     0.4050 ca         1 JA7      -0.161800
     17 C07          5.6580     1.7910    -0.5700 ca         1 JA7       0.130600
     18 C08          4.8600     2.9050    -0.8660 ca         1 JA7      -0.214000
     19 C09          3.6460     3.0980    -0.1850 ca         1 JA7       0.037000
     20 S11          1.6770     2.4010     1.6390 sy         1 JA7       1.147600
     21 C14          0.3030     0.3640    -1.4330 ca         1 JA7      -0.105300
     22 O16         -2.0630     0.6640    -1.0930 os         1 JA7      -0.340100
     23 C18         -4.3080     0.8220    -0.2630 c3         1 JA7      -0.090400
     24 C19         -5.8200     0.7130    -0.5580 c3         1 JA7      -0.051400
     25 O22         -8.7180    -0.3220     0.3300 o          1 JA7      -0.749500
     26 O23         -8.7710     1.8060     0.0160 o          1 JA7      -0.749500
     27 C25         -0.1320     0.1060    -4.2140 ca         1 JA7      -0.076000
     28 C27          1.3870     0.1770    -2.3180 ca         1 JA7      -0.054000
     29 N29         -0.3280    -1.8120     0.8690 n          1 JA7      -0.359800
     30 C30          0.7660    -2.5580     0.1750 c3         1 JA7      -0.069000
     31 C31          1.9690    -2.9180     1.0780 c          1 JA7       0.690000
     32 O32          2.8300    -2.0700     1.2500 o          1 JA7      -0.727000
     33 O33          1.9890    -4.0210     1.6030 o          1 JA7      -0.727000
     34 C34         -1.3220    -2.6280     1.6010 c3         1 JA7       0.156300
     35 C35         -2.6190    -2.7370     0.8420 cc         1 JA7      -0.194300
     36 C36         -2.8080    -2.8840    -0.5110 cd         1 JA7      -0.158000
     37 C37         -4.1750    -2.9620    -0.8890 cd         1 JA7      -0.142000
     38 C38         -5.0400    -2.8750     0.1700 cc         1 JA7      -0.271000
     39 S39         -4.1650    -2.6940     1.6880 ss         1 JA7       0.249000
     40 O40         -1.1550     0.1520     1.7330 o          1 JA7      -0.615100
     41 O41          1.5330     1.4440     2.7370 o          1 JA7      -0.540500
     42 O42          1.4260     3.8330     1.8060 o          1 JA7      -0.540500
     43 C43          4.0470     1.0570     1.0990 ca         1 JA7       0.069000
     44 H121        -0.2680     2.1330     0.8750 hn         1 JA7       0.503000
     45 H131         1.6010     0.0440     0.2170 h1         1 JA7       0.089700
     46 H171        -3.6460     1.4140    -2.2430 h1         1 JA7       0.025700
     47 H172        -3.6670    -0.3500    -1.9710 h1         1 JA7       0.025700
     48 H201        -6.4680     1.8660     1.1090 hc         1 JA7       0.021700
     49 H202        -6.4190     0.0480     1.3730 hc         1 JA7       0.021700
     50 H241        -2.2140     0.3630    -3.7790 ha         1 JA7       0.116000
     51 H261         2.0130    -0.1020    -4.3690 ha         1 JA7       0.103000
     52 H031         7.1420     2.2530    -1.9370 hn         1 JA7       0.313500
     53 H041         7.9620    -1.2890     0.1250 ha         1 JA7       0.206000
     54 H051         5.8260    -1.0420     1.4050 ha         1 JA7       0.240000
     55 H081         5.1720     3.6170    -1.6260 ha         1 JA7       0.107000
     56 H091         3.0220     3.9570    -0.4280 ha         1 JA7       0.131000
     57 H182        -4.0310     0.0720     0.4870 hc         1 JA7       0.053200
     58 H181        -4.0910     1.8060     0.1700 hc         1 JA7       0.053200
     59 H191        -6.0280    -0.2600    -1.0210 hc         1 JA7       0.034200
     60 H192        -6.0980     1.4800    -1.2920 hc         1 JA7       0.034200
     61 H251        -0.2980     0.0050    -5.2850 ha         1 JA7       0.094000
     62 H271         2.4040     0.1310    -1.9340 ha         1 JA7       0.120000
     63 H302         0.3550    -3.4950    -0.2210 h1         1 JA7       0.045700
     64 H301         1.1400    -1.9970    -0.6870 h1         1 JA7       0.045700
     65 H341        -0.9210    -3.6380     1.7660 h1         1 JA7       0.076700
     66 H342        -1.5050    -2.1900     2.5920 h1         1 JA7       0.076700
     67 H361        -1.9920    -2.9330    -1.2250 ha         1 JA7       0.124000
     68 H371        -4.5030    -3.0750    -1.9180 ha         1 JA7       0.112000
     69 H381        -6.1220    -2.8990     0.1760 h4         1 JA7       0.137000
     70 H431         3.7370     0.3360     1.8550 ha         1 JA7       0.200000
@<TRIPOS>BOND
     1     1    19 ar  
     2     1    20 1   
     3     1    43 ar  
     4     2     3 1   
     5     2    20 1   
     6     2    44 1   
     7     3    10 1   
     8     3    21 1   
     9     3    45 1   
    10     4     8 ar  
    11     4    21 ar  
    12     4    22 1   
    13     5    22 1   
    14     5    23 1   
    15     5    46 1   
    16     5    47 1   
    17     6     7 1   
    18     6    24 1   
    19     6    48 1   
    20     6    49 1   
    21     7    25 1   
    22     7    26 1   
    23     8    27 ar  
    24     8    50 1   
    25     9    27 ar  
    26     9    28 ar  
    27     9    51 1   
    28    10    29 1   
    29    10    40 2   
    30    11    12 2   
    31    12    13 1   
    32    12    14 1   
    33    13    17 1   
    34    13    52 1   
    35    14    15 2   
    36    14    53 1   
    37    15    16 1   
    38    15    54 1   
    39    16    17 ar  
    40    16    43 ar  
    41    17    18 ar  
    42    18    19 ar  
    43    18    55 1   
    44    19    56 1   
    45    20    41 2   
    46    20    42 2   
    47    21    28 ar  
    48    23    24 1   
    49    23    57 1   
    50    23    58 1   
    51    24    59 1   
    52    24    60 1   
    53    27    61 1   
    54    28    62 1   
    55    29    30 1   
    56    29    34 1   
    57    30    31 1   
    58    30    63 1   
    59    30    64 1   
    60    31    32 1   
    61    31    33 1   
    62    34    35 1   
    63    34    65 1   
    64    34    66 1   
    65    35    36 2   
    66    35    39 1   
    67    36    37 1   
    68    36    67 1   
    69    37    38 2   
    70    37    68 1   
    71    38    39 1   
    72    38    69 1   
    73    43    70 1   
@<TRIPOS>SUBSTRUCTURE
     1 JA7         1 TEMP              0 ****  ****    0 ROOT
