@<TRIPOS>MOLECULE
JA7
   70    73     1     0     0
SMALL
bcc


@<TRIPOS>ATOM
      1 C10          3.0590     2.1030     0.9290 ca         1 JA7      -0.322500
      2 N12          0.4710     1.9070     0.4910 n7         1 JA7      -0.802100
      3 C13          0.4830     0.5320     0.0140 c3         1 JA7       0.194800
      4 C15         -1.1360     0.6730    -1.9400 ca         1 JA7       0.180100
      5 C17         -3.4390     0.9620    -1.3700 c3         1 JA7       0.142400
      6 C20         -6.5670     1.4950     0.8440 c3         1 JA7      -0.204400
      7 C21         -8.0880     1.6010     0.6370 c          1 JA7       0.927600
      8 C24         -1.3880     0.6660    -3.3100 ca         1 JA7      -0.230000
      9 C26          0.9670     0.3910    -3.7520 ca         1 JA7      -0.187000
     10 C28         -0.4130    -0.3730     0.8790 c          1 JA7       0.683100
     11 O01          8.3950     0.2520    -1.6860 o          1 JA7      -0.660500
     12 C02          7.3470     0.3440    -1.0650 c          1 JA7       0.709700
     13 N03          6.6150     1.5100    -1.0830 ns         1 JA7      -0.445100
     14 C04          6.7640    -0.7280    -0.2730 cc         1 JA7      -0.285200
     15 C05          5.6100    -0.5630     0.3990 cd         1 JA7       0.016800
     16 C06          4.9100     0.6870     0.3630 ca         1 JA7      -0.161800
     17 C07          5.4410     1.7220    -0.4220 ca         1 JA7       0.130600
     18 C08          4.7680     2.9460    -0.5270 ca         1 JA7      -0.232000
     19 C09          3.5760     3.1300     0.1330 ca         1 JA7       0.019000
     20 S11          1.4990     2.3190     1.7260 sy         1 JA7       1.289200
     21 C14          0.1730     0.5130    -1.4670 ca         1 JA7      -0.105300
     22 O16         -2.0760     0.8320    -0.9990 os         1 JA7      -0.316900
     23 C18         -4.2530     1.1370    -0.1070 c3         1 JA7      -0.090400
     24 C19         -5.7430     1.2450    -0.4090 c3         1 JA7      -0.051400
     25 O22         -8.5530     1.2320    -0.4590 o          1 JA7      -0.854800
     26 O23         -8.7430     2.0360     1.6090 o          1 JA7      -0.854800
     27 C25         -0.3360     0.5260    -4.2050 ca         1 JA7      -0.094000
     28 C27          1.2070     0.3870    -2.3840 ca         1 JA7      -0.072000
     29 N29         -0.3560    -1.6960     0.6140 n          1 JA7      -0.426800
     30 C30          0.7420    -2.3220    -0.0940 c3         1 JA7      -0.069000
     31 C31          2.0570    -2.4100     0.7210 c          1 JA7       0.900600
     32 O32          2.9900    -2.9930     0.1420 o          1 JA7      -0.832300
     33 O33          2.0610    -1.8890     1.8510 o          1 JA7      -0.832300
     34 C34         -1.1760    -2.6060     1.3880 c3         1 JA7       0.156300
     35 C35         -2.1000    -3.3860     0.5090 cc         1 JA7      -0.049400
     36 C36         -2.4390    -4.7030     0.5810 cd         1 JA7      -0.176000
     37 C37         -3.3960    -5.0850    -0.4020 cd         1 JA7      -0.160000
     38 C38         -3.7570    -4.0490    -1.2060 cc         1 JA7      -0.144100
     39 S39         -2.9380    -2.6030    -0.7770 ss         1 JA7      -0.040800
     40 O40         -1.1380     0.1160     1.7260 o          1 JA7      -0.615100
     41 O41          1.4530     1.3980     2.8510 o          1 JA7      -0.611300
     42 O42          1.2550     3.7330     1.9740 o          1 JA7      -0.611300
     43 C43          3.7180     0.8980     1.0580 ca         1 JA7       0.051000
     44 H121        -0.4630     2.2720     0.6580 hn         1 JA7       0.447800
     45 H131         1.5070     0.1670     0.1120 h1         1 JA7       0.089700
     46 H171        -3.5690     1.8260    -2.0320 h1         1 JA7       0.025700
     47 H172        -3.7670     0.0720    -1.9190 h1         1 JA7       0.025700
     48 H201        -6.2180     2.4060     1.3420 hc         1 JA7       0.021700
     49 H202        -6.3840     0.6890     1.5660 hc         1 JA7       0.021700
     50 H241        -2.3940     0.7740    -3.6910 ha         1 JA7       0.134000
     51 H261         1.7860     0.2860    -4.4490 ha         1 JA7       0.121000
     52 H031         6.9880     2.2640    -1.6460 hn         1 JA7       0.313500
     53 H041         7.2940    -1.6700    -0.2580 ha         1 JA7       0.156000
     54 H051         5.1750    -1.3800     0.9620 ha         1 JA7       0.190000
     55 H081         5.1810     3.7400    -1.1360 ha         1 JA7       0.125000
     56 H091         3.0540     4.0720     0.0360 ha         1 JA7       0.149000
     57 H182        -4.0680     0.2920     0.5630 hc         1 JA7       0.053200
     58 H181        -3.9120     2.0360     0.4140 hc         1 JA7       0.053200
     59 H191        -6.0840     0.3280    -0.8960 hc         1 JA7       0.034200
     60 H192        -5.9120     2.0520    -1.1290 hc         1 JA7       0.034200
     61 H251        -0.5440     0.5250    -5.2680 ha         1 JA7       0.112000
     62 H271         2.2220     0.2690    -2.0220 ha         1 JA7       0.138000
     63 H302         0.4240    -3.3280    -0.3770 h1         1 JA7       0.045700
     64 H301         0.9390    -1.8210    -1.0420 h1         1 JA7       0.045700
     65 H341        -0.5420    -3.3000     1.9460 h1         1 JA7       0.076700
     66 H342        -1.7430    -2.0340     2.1220 h1         1 JA7       0.076700
     67 H361        -2.0170    -5.3790     1.3120 ha         1 JA7       0.142000
     68 H371        -3.7860    -6.0870    -0.5080 ha         1 JA7       0.130000
     69 H381        -4.4460    -4.0600    -2.0360 h4         1 JA7       0.155000
     70 H431         3.3110     0.0940     1.6600 ha         1 JA7       0.218000
@<TRIPOS>BOND
     1     1    19 ar  
     2     1    20 1   
     3     1    43 ar  
     4     2     3 1   
     5     2    20 1   
     6     2    44 1   
     7     3    10 1   
     8     3    21 1   
     9     3    45 1   
    10     4     8 ar  
    11     4    21 ar  
    12     4    22 1   
    13     5    22 1   
    14     5    23 1   
    15     5    46 1   
    16     5    47 1   
    17     6     7 1   
    18     6    24 1   
    19     6    48 1   
    20     6    49 1   
    21     7    25 1   
    22     7    26 1   
    23     8    27 ar  
    24     8    50 1   
    25     9    27 ar  
    26     9    28 ar  
    27     9    51 1   
    28    10    29 1   
    29    10    40 2   
    30    11    12 2   
    31    12    13 1   
    32    12    14 1   
    33    13    17 1   
    34    13    52 1   
    35    14    15 2   
    36    14    53 1   
    37    15    16 1   
    38    15    54 1   
    39    16    17 ar  
    40    16    43 ar  
    41    17    18 ar  
    42    18    19 ar  
    43    18    55 1   
    44    19    56 1   
    45    20    41 2   
    46    20    42 2   
    47    21    28 ar  
    48    23    24 1   
    49    23    57 1   
    50    23    58 1   
    51    24    59 1   
    52    24    60 1   
    53    27    61 1   
    54    28    62 1   
    55    29    30 1   
    56    29    34 1   
    57    30    31 1   
    58    30    63 1   
    59    30    64 1   
    60    31    32 1   
    61    31    33 1   
    62    34    35 1   
    63    34    65 1   
    64    34    66 1   
    65    35    36 2   
    66    35    39 1   
    67    36    37 1   
    68    36    67 1   
    69    37    38 2   
    70    37    68 1   
    71    38    39 1   
    72    38    69 1   
    73    43    70 1   
@<TRIPOS>SUBSTRUCTURE
     1 JA7         1 TEMP              0 ****  ****    0 ROOT
