@<TRIPOS>MOLECULE
JA8
   16    17     1     0     0
SMALL
abcg2


@<TRIPOS>ATOM
      1 C10         -1.0470    -0.5120     0.0180 ca         1 JA8       0.147400
      2 BR1          3.0760    -0.2700     0.0180 br         1 JA8      -0.096100
      3 C02          1.2380     0.1730     0.0220 ca         1 JA8      -0.006900
      4 C03          0.8730     1.5180     0.0300 ca         1 JA8      -0.100000
      5 C04         -0.4720     1.8590     0.0320 ca         1 JA8      -0.058000
      6 C05         -1.4130     0.8450     0.0250 ca         1 JA8      -0.186000
      7 S06         -3.1480     0.9660     0.0250 ss         1 JA8      -0.036200
      8 C07         -3.2220    -0.7970     0.0130 cc         1 JA8       0.658100
      9 N08         -4.4110    -1.4040     0.0390 nv         1 JA8      -1.031200
     10 N09         -2.0800    -1.4100     0.0110 nd         1 JA8      -0.637100
     11 C11          0.3060    -0.8500     0.0160 ca         1 JA8      -0.055000
     12 H1           1.6220     2.2970     0.0340 ha         1 JA8       0.131000
     13 H2          -0.7640     2.9000     0.0390 ha         1 JA8       0.125000
     14 H3          -5.2650    -0.8980    -0.1180 hn         1 JA8       0.500000
     15 H4          -4.4440    -2.4030    -0.0780 hn         1 JA8       0.500000
     16 H5           0.5980    -1.8920     0.0100 ha         1 JA8       0.146000
@<TRIPOS>BOND
     1     1     6 ar  
     2     1    10 1   
     3     1    11 ar  
     4     2     3 1   
     5     3     4 ar  
     6     3    11 ar  
     7     4     5 ar  
     8     4    12 1   
     9     5     6 ar  
    10     5    13 1   
    11     6     7 1   
    12     7     8 1   
    13     8     9 1   
    14     8    10 2   
    15     9    14 1   
    16     9    15 1   
    17    11    16 1   
@<TRIPOS>SUBSTRUCTURE
     1 JA8         1 TEMP              0 ****  ****    0 ROOT
