@<TRIPOS>MOLECULE
JA8
   16    17     1     0     0
SMALL
No Charge or Current Charge


@<TRIPOS>ATOM
      1 C10         -1.0800    -0.5030     0.0470 ca         1 JA8       0.147400
      2 Br1          3.1100    -0.3120    -0.0180 br         1 JA8      -0.096100
      3 C02          1.2560     0.1560     0.0090 ca         1 JA8      -0.006900
      4 C03          0.8760     1.5140     0.0120 ca         1 JA8      -0.100000
      5 C04         -0.4880     1.8620     0.0320 ca         1 JA8      -0.058000
      6 C05         -1.4410     0.8330     0.0490 ca         1 JA8      -0.186000
      7 S06         -3.1840     1.0490     0.0750 ss         1 JA8      -0.036200
      8 C07         -3.2430    -0.7270     0.0830 cc         1 JA8       0.658100
      9 N08         -4.3920    -1.4210     0.0940 nv         1 JA8      -1.031200
     10 N09         -2.1210    -1.4280     0.0650 nd         1 JA8      -0.637100
     11 C11          0.2780    -0.8590     0.0270 ca         1 JA8      -0.055000
     12 H1           1.6350     2.2930    -0.0020 ha         1 JA8       0.131000
     13 H2          -0.7930     2.9070     0.0340 ha         1 JA8       0.125000
     14 H3          -5.2220    -0.9380    -0.2310 hn         1 JA8       0.500000
     15 H4          -4.3110    -2.3970    -0.1640 hn         1 JA8       0.500000
     16 H5           0.5690    -1.9060     0.0250 ha         1 JA8       0.146000
@<TRIPOS>BOND
     1     1     6 ar  
     2     1    10 1   
     3     1    11 ar  
     4     2     3 1   
     5     3     4 ar  
     6     3    11 ar  
     7     4     5 ar  
     8     4    12 1   
     9     5     6 ar  
    10     5    13 1   
    11     6     7 1   
    12     7     8 1   
    13     8     9 1   
    14     8    10 2   
    15     9    14 1   
    16     9    15 1   
    17    11    16 1   
@<TRIPOS>SUBSTRUCTURE
     1 JA8         1 TEMP              0 ****  ****    0 ROOT
