@<TRIPOS>MOLECULE
JA9
   30    32     1     0     0
SMALL
abcg2


@<TRIPOS>ATOM
      1 CAA        -21.4710    -1.2930    -8.3380 ca         1 JA9      -0.170000
      2 CAB        -21.8960     0.0240    -8.4290 ca         1 JA9       0.151100
      3 CAC        -21.2820    -2.0330    -9.4940 ca         1 JA9      -0.068000
      4 CAD        -22.1320     0.5950    -9.6800 ca         1 JA9       0.085000
      5 CAE        -21.5130    -1.4810   -10.7430 ca         1 JA9      -0.128000
      6 CAF        -21.9420    -0.1650   -10.8270 ca         1 JA9       0.146000
      7 CAH        -21.6620     0.4480    -6.1290 ca         1 JA9       0.110100
      8 CAI        -20.2980     0.5820    -5.8250 ca         1 JA9       0.077000
      9 CAJ        -22.5700     0.0010    -5.1870 ca         1 JA9      -0.105000
     10 CAK        -19.8010     0.2790    -4.5730 ca         1 JA9      -0.036000
     11 CAL        -22.0650    -0.2920    -3.9300 ca         1 JA9      -0.072200
     12 CAM        -20.7030    -0.1630    -3.6110 ca         1 JA9       0.082400
     13 CAO        -21.6640    -0.8400    -1.8460 cc         1 JA9       0.438700
     14 CAT        -20.3930    -1.2920     0.5130 c3         1 JA9       0.043900
     15 NAN        -20.4870    -0.5140    -2.3010 nd         1 JA9      -0.582100
     16 NAP        -22.6530    -0.7300    -2.7750 na         1 JA9      -0.297600
     17 OAG        -22.1230     0.8230    -7.3610 os         1 JA9      -0.226200
     18 SAS        -22.0350    -1.3680    -0.2330 ss         1 JA9      -0.237200
     19 CLQ        -19.2290     1.1610    -7.0530 cl         1 JA9      -0.171000
     20 CLR        -22.2310     0.5320   -12.3750 cl         1 JA9      -0.171000
     21 CLU        -22.6510     2.2290    -9.7670 cl         1 JA9      -0.149000
     22 H1         -21.2880    -1.7470    -7.3720 ha         1 JA9       0.133000
     23 H2         -20.9500    -3.0600    -9.4190 ha         1 JA9       0.122000
     24 H3         -21.3660    -2.0620   -11.6430 ha         1 JA9       0.134000
     25 H4         -23.6180    -0.0970    -5.4340 ha         1 JA9       0.140000
     26 H5         -18.7490     0.3890    -4.3470 ha         1 JA9       0.148000
     27 H6         -20.5240    -1.6060     1.5460 h1         1 JA9       0.077033
     28 H7         -19.7060    -1.9710     0.0150 h1         1 JA9       0.077033
     29 H8         -20.0030    -0.2790     0.4910 h1         1 JA9       0.077033
     30 H10        -23.6340    -0.9240    -2.6370 hn         1 JA9       0.371000
@<TRIPOS>BOND
     1     1     2 ar  
     2     1     3 ar  
     3     1    22 1   
     4     2     4 ar  
     5     2    17 1   
     6     3     5 ar  
     7     3    23 1   
     8     4     6 ar  
     9     4    21 1   
    10     5     6 ar  
    11     5    24 1   
    12     6    20 1   
    13     7     8 ar  
    14     7     9 ar  
    15     7    17 1   
    16     8    10 ar  
    17     8    19 1   
    18     9    11 ar  
    19     9    25 1   
    20    10    12 ar  
    21    10    26 1   
    22    11    12 ar  
    23    11    16 1   
    24    12    15 1   
    25    13    15 2   
    26    13    16 1   
    27    13    18 1   
    28    14    18 1   
    29    14    27 1   
    30    14    28 1   
    31    14    29 1   
    32    16    30 1   
@<TRIPOS>SUBSTRUCTURE
     1 JA9         1 TEMP              0 ****  ****    0 ROOT
