@<TRIPOS>MOLECULE
JA9
   30    32     1     0     0
SMALL
No Charge or Current Charge


@<TRIPOS>ATOM
      1 CAA        -21.6210    -1.3460    -8.3840 ca         1 JA9      -0.170000
      2 CAB        -22.0050     0.0080    -8.4900 ca         1 JA9       0.151100
      3 CAC        -21.3150    -2.0850    -9.5390 ca         1 JA9      -0.068000
      4 CAD        -22.0930     0.6170    -9.7590 ca         1 JA9       0.085000
      5 CAE        -21.3960    -1.4760   -10.8030 ca         1 JA9      -0.128000
      6 CAF        -21.7840    -0.1300   -10.9150 ca         1 JA9       0.146000
      7 CAH        -21.7830     0.4570    -6.1260 ca         1 JA9       0.110100
      8 CAI        -20.3900     0.5970    -5.8680 ca         1 JA9       0.077000
      9 CAJ        -22.6560     0.0280    -5.1060 ca         1 JA9      -0.105000
     10 CAK        -19.8690     0.2930    -4.5910 ca         1 JA9      -0.036000
     11 CAL        -22.0950    -0.2630    -3.8570 ca         1 JA9      -0.072200
     12 CAM        -20.7540    -0.1420    -3.5940 ca         1 JA9       0.082400
     13 CAO        -21.6600    -0.8180    -1.7910 cc         1 JA9       0.438700
     14 CAT        -20.2840    -1.3290     0.6040 c3         1 JA9       0.043900
     15 NAN        -20.4530    -0.4910    -2.2770 nd         1 JA9      -0.582100
     16 NAP        -22.6880    -0.6960    -2.7090 na         1 JA9      -0.297600
     17 OAG        -22.3090     0.7470    -7.3650 os         1 JA9      -0.226200
     18 SAS        -21.9730    -1.3570    -0.1480 ss         1 JA9      -0.237200
     19 ClQ        -19.2840     1.1700    -7.1190 cl         1 JA9      -0.171000
     20 ClR        -21.8760     0.5980   -12.5200 cl         1 JA9      -0.171000
     21 ClU        -22.5780     2.3140    -9.8910 cl         1 JA9      -0.149000
     22 H1         -21.5620    -1.8310    -7.4130 ha         1 JA9       0.133000
     23 H2         -21.0180    -3.1290    -9.4560 ha         1 JA9       0.122000
     24 H3         -21.1590    -2.0470   -11.6970 ha         1 JA9       0.134000
     25 H4         -23.7220    -0.0770    -5.2880 ha         1 JA9       0.140000
     26 H5         -18.8090     0.3970    -4.3830 ha         1 JA9       0.148000
     27 H6         -20.3410    -1.6510     1.6510 h1         1 JA9       0.077033
     28 H7         -19.6210    -2.0090     0.0540 h1         1 JA9       0.077033
     29 H8         -19.8750    -0.3120     0.5620 h1         1 JA9       0.077033
     30 H10        -23.6660    -0.8910    -2.5450 hn         1 JA9       0.371000
@<TRIPOS>BOND
     1     1     2 ar  
     2     1     3 ar  
     3     1    22 1   
     4     2     4 ar  
     5     2    17 1   
     6     3     5 ar  
     7     3    23 1   
     8     4     6 ar  
     9     4    21 1   
    10     5     6 ar  
    11     5    24 1   
    12     6    20 1   
    13     7     8 ar  
    14     7     9 ar  
    15     7    17 1   
    16     8    10 ar  
    17     8    19 1   
    18     9    11 ar  
    19     9    25 1   
    20    10    12 ar  
    21    10    26 1   
    22    11    12 ar  
    23    11    16 1   
    24    12    15 1   
    25    13    15 2   
    26    13    16 1   
    27    13    18 1   
    28    14    18 1   
    29    14    27 1   
    30    14    28 1   
    31    14    29 1   
    32    16    30 1   
@<TRIPOS>SUBSTRUCTURE
     1 JA9         1 TEMP              0 ****  ****    0 ROOT
