@<TRIPOS>MOLECULE
JAA
   32    32     1     0     0
SMALL
No Charge or Current Charge


@<TRIPOS>ATOM
      1 O01          0.7150     2.6740     1.5380 o          1 JAA      -0.559100
      2 O02         -3.0270    -2.1460    -1.3480 o          1 JAA      -0.738000
      3 O03         -3.9720    -1.2500     0.3660 o          1 JAA      -0.738000
      4 C04         -1.1390     0.1990    -0.2660 c5         1 JAA      -0.032700
      5 C05          0.3020     0.6310     0.1970 c5         1 JAA      -0.178700
      6 C06         -2.0250     1.4170     0.1580 c5         1 JAA      -0.067400
      7 C07         -1.0630     2.5940    -0.1410 c5         1 JAA      -0.195400
      8 C08          0.2000     2.1200     0.5730 c          1 JAA       0.578100
      9 C09          1.3960     0.3720    -0.8700 c3         1 JAA      -0.026200
     10 C10         -1.5970    -1.1790     0.2820 c3         1 JAA      -0.203400
     11 C11          2.7950     0.7180    -0.3940 c2         1 JAA      -0.198200
     12 C12         -2.9800    -1.5670    -0.2730 c          1 JAA       0.717000
     13 C13          3.6680    -0.1110     0.2050 c2         1 JAA      -0.238200
     14 C14          3.4380    -1.5650     0.5750 c3         1 JAA      -0.045200
     15 C15          4.0890    -2.5280    -0.4330 c3         1 JAA      -0.082100
     16 H2          -1.1640     0.1130    -1.3610 hc         1 JAA       0.064700
     17 H3           0.6200     0.0940     1.0980 hc         1 JAA       0.069700
     18 H6          -0.8860     2.6310    -1.2220 hc         1 JAA       0.057200
     19 H7          -1.4110     3.5600     0.2400 hc         1 JAA       0.057200
     20 H8           1.3590    -0.6820    -1.1730 hc         1 JAA       0.050200
     21 H9           1.1720     0.9410    -1.7810 hc         1 JAA       0.050200
     22 H10         -0.8460    -1.9010    -0.0630 hc         1 JAA       0.020700
     23 H11         -1.6380    -1.0890     1.3750 hc         1 JAA       0.020700
     24 H12          3.0870     1.7510    -0.5970 ha         1 JAA       0.172000
     25 H14          4.6540     0.2630     0.4890 ha         1 JAA       0.151000
     26 H16          3.8460    -1.7630     1.5740 hc         1 JAA       0.049200
     27 H17          2.3670    -1.7920     0.6370 hc         1 JAA       0.049200
     28 H18          3.6700    -2.3790    -1.4360 hc         1 JAA       0.026367
     29 H19          5.1720    -2.3640    -0.4820 hc         1 JAA       0.026367
     30 H20          3.9110    -3.5690    -0.1380 hc         1 JAA       0.026367
     31 H4          -2.9570     1.4790    -0.4170 hc         1 JAA       0.057700
     32 H5          -2.2940     1.3770     1.2200 hc         1 JAA       0.057700
@<TRIPOS>BOND
     1     1     8 2   
     2     2    12 1   
     3     3    12 1   
     4     4     5 1   
     5     4     6 1   
     6     4    10 1   
     7     4    16 1   
     8     5     8 1   
     9     5     9 1   
    10     5    17 1   
    11     6     7 1   
    12     6    31 1   
    13     6    32 1   
    14     7     8 1   
    15     7    18 1   
    16     7    19 1   
    17     9    11 1   
    18     9    20 1   
    19     9    21 1   
    20    10    12 1   
    21    10    22 1   
    22    10    23 1   
    23    11    13 2   
    24    11    24 1   
    25    13    14 1   
    26    13    25 1   
    27    14    15 1   
    28    14    26 1   
    29    14    27 1   
    30    15    28 1   
    31    15    29 1   
    32    15    30 1   
@<TRIPOS>SUBSTRUCTURE
     1 JAA         1 TEMP              0 ****  ****    0 ROOT
