@<TRIPOS>MOLECULE
JAA
   32    32     1     0     0
SMALL
bcc


@<TRIPOS>ATOM
      1 O01          1.0080     3.2160    -0.1370 o          1 JAA      -0.559100
      2 O02         -3.2280    -1.2640    -1.3070 o          1 JAA      -0.843300
      3 O03         -3.0900    -2.5930     0.4750 o          1 JAA      -0.843300
      4 C04         -1.0810     0.3440    -0.3740 c5         1 JAA      -0.032700
      5 C05          0.3120     0.8920    -0.0400 c5         1 JAA      -0.178700
      6 C06         -2.0190     1.3570     0.2910 c5         1 JAA      -0.067400
      7 C07         -1.3540     2.7060     0.0420 c5         1 JAA      -0.195400
      8 C08          0.1260     2.3950    -0.0470 c          1 JAA       0.578100
      9 C09          1.4560     0.3930    -0.9260 c3         1 JAA      -0.026200
     10 C10         -1.2980    -1.0870     0.0810 c3         1 JAA      -0.203400
     11 C11          2.8180     0.6200    -0.3400 c2         1 JAA      -0.148200
     12 C12         -2.6670    -1.6920    -0.2790 c          1 JAA       0.927600
     13 C13          3.5350    -0.2770     0.3360 c2         1 JAA      -0.188200
     14 C14          3.1520    -1.6920     0.6440 c3         1 JAA      -0.045200
     15 C15          4.0020    -2.6980    -0.1300 c3         1 JAA      -0.082100
     16 H2          -1.2260     0.3990    -1.4600 hc         1 JAA       0.064700
     17 H3           0.5300     0.6260     1.0060 hc         1 JAA       0.069700
     18 H6          -1.6570     3.1170    -0.9280 hc         1 JAA       0.057200
     19 H7          -1.5610     3.4740     0.7890 hc         1 JAA       0.057200
     20 H8           1.3000    -0.6710    -1.1160 hc         1 JAA       0.050200
     21 H9           1.3900     0.8820    -1.9020 hc         1 JAA       0.050200
     22 H10         -0.5340    -1.7350    -0.3670 hc         1 JAA       0.020700
     23 H11         -1.1380    -1.1540     1.1630 hc         1 JAA       0.020700
     24 H12          3.2330     1.6130    -0.4700 ha         1 JAA       0.122000
     25 H14          4.5130     0.0280     0.7020 ha         1 JAA       0.101000
     26 H16          3.2810    -1.8660     1.7160 hc         1 JAA       0.049200
     27 H17          2.0950    -1.8660     0.4350 hc         1 JAA       0.049200
     28 H18          3.8580    -2.5850    -1.2050 hc         1 JAA       0.026367
     29 H19          5.0650    -2.5620     0.0770 hc         1 JAA       0.026367
     30 H20          3.7420    -3.7230     0.1370 hc         1 JAA       0.026367
     31 H4          -3.0330     1.2980    -0.1000 hc         1 JAA       0.057700
     32 H5          -2.0690     1.1550     1.3660 hc         1 JAA       0.057700
@<TRIPOS>BOND
     1     1     8 2   
     2     2    12 1   
     3     3    12 1   
     4     4     5 1   
     5     4     6 1   
     6     4    10 1   
     7     4    16 1   
     8     5     8 1   
     9     5     9 1   
    10     5    17 1   
    11     6     7 1   
    12     6    31 1   
    13     6    32 1   
    14     7     8 1   
    15     7    18 1   
    16     7    19 1   
    17     9    11 1   
    18     9    20 1   
    19     9    21 1   
    20    10    12 1   
    21    10    22 1   
    22    10    23 1   
    23    11    13 2   
    24    11    24 1   
    25    13    14 1   
    26    13    25 1   
    27    14    15 1   
    28    14    26 1   
    29    14    27 1   
    30    15    28 1   
    31    15    29 1   
    32    15    30 1   
@<TRIPOS>SUBSTRUCTURE
     1 JAA         1 TEMP              0 ****  ****    0 ROOT
