@<TRIPOS>MOLECULE
JAB
   12    12     1     0     0
SMALL
abcg2


@<TRIPOS>ATOM
      1 N01         17.4300   -17.5310   -12.4230 nt         1 JAB      -0.491000
      2 C02         18.7300   -17.3220   -12.5930 cs         1 JAB       0.309900
      3 S03         19.4070   -15.8140   -12.8400 s          1 JAB      -0.531400
      4 C04         19.5730   -18.5220   -12.5530 cc         1 JAB       0.140500
      5 C05         20.9110   -18.7190   -12.6970 cd         1 JAB      -0.150000
      6 C06         21.0670   -20.1170   -12.5500 cd         1 JAB       0.257900
      7 N07         19.9250   -20.7190   -12.3360 nc         1 JAB      -0.329300
      8 O08         18.9650   -19.7120   -12.3350 os         1 JAB      -0.114700
      9 H1          16.7910   -16.7500   -12.4380 hn         1 JAB       0.338000
     10 H2          17.0520   -18.4560   -12.2770 hn         1 JAB       0.338000
     11 H3          21.6680   -17.9780   -12.8790 ha         1 JAB       0.178000
     12 H4          21.9740   -20.7020   -12.5950 h4         1 JAB       0.054100
@<TRIPOS>BOND
     1     1     2 1   
     2     1     9 1   
     3     1    10 1   
     4     2     3 2   
     5     2     4 1   
     6     4     5 2   
     7     4     8 1   
     8     5     6 1   
     9     5    11 1   
    10     6     7 2   
    11     6    12 1   
    12     7     8 1   
@<TRIPOS>SUBSTRUCTURE
     1 JAB         1 TEMP              0 ****  ****    0 ROOT
