@<TRIPOS>MOLECULE
JAB
   12    12     1     0     0
SMALL
No Charge or Current Charge


@<TRIPOS>ATOM
      1 N01         17.4290   -17.4760   -12.4250 nt         1 JAB      -0.491000
      2 C02         18.7650   -17.3480   -12.5980 cs         1 JAB       0.309900
      3 S03         19.3890   -15.8180   -12.8500 s          1 JAB      -0.531400
      4 C04         19.5170   -18.5840   -12.5440 cc         1 JAB       0.140500
      5 C05         20.8610   -18.7360   -12.6850 cd         1 JAB      -0.150000
      6 C06         21.1020   -20.1150   -12.5530 cd         1 JAB       0.257900
      7 N07         19.9930   -20.8080   -12.3410 nc         1 JAB      -0.329300
      8 O08         18.9420   -19.8160   -12.3320 os         1 JAB      -0.114700
      9 H1          16.8340   -16.6600   -12.4490 hn         1 JAB       0.338000
     10 H2          17.0160   -18.3870   -12.2700 hn         1 JAB       0.338000
     11 H3          21.5950   -17.9600   -12.8630 ha         1 JAB       0.178000
     12 H4          22.0500   -20.6340   -12.6060 h4         1 JAB       0.054100
@<TRIPOS>BOND
     1     1     2 1   
     2     1     9 1   
     3     1    10 1   
     4     2     3 2   
     5     2     4 1   
     6     4     5 2   
     7     4     8 1   
     8     5     6 1   
     9     5    11 1   
    10     6     7 2   
    11     6    12 1   
    12     7     8 1   
@<TRIPOS>SUBSTRUCTURE
     1 JAB         1 TEMP              0 ****  ****    0 ROOT
