@<TRIPOS>MOLECULE
JAC
   44    47     1     0     0
SMALL
abcg2


@<TRIPOS>ATOM
      1 C1          -4.0980    -1.8810    -0.1090 c3         1 JAC       0.293700
      2 F1          -3.6400    -2.9850    -0.6960 f          1 JAC      -0.107333
      3 N1          -1.8330    -1.0240    -0.3590 nc         1 JAC      -0.456800
      4 O1          -4.1860     2.7010     0.7920 os         1 JAC      -0.444000
      5 C2          -3.1060    -0.7780    -0.1300 cd         1 JAC       0.150300
      6 F2          -5.2270    -1.5200    -0.7360 f          1 JAC      -0.107333
      7 N2          -1.2290     0.1550    -0.2680 na         1 JAC       0.250000
      8 O2           5.9640     1.6160     0.8430 o          1 JAC      -0.557000
      9 C3          -2.1000     1.1580     0.0100 cc         1 JAC      -0.125300
     10 F3          -4.4500    -2.2120     1.1420 f          1 JAC      -0.107333
     11 N3           5.1260    -0.1670    -0.3160 n          1 JAC      -0.419800
     12 C4          -1.8530     2.6180     0.1150 c6         1 JAC      -0.046100
     13 C5          -3.2150     3.2970    -0.0440 c6         1 JAC       0.158600
     14 C6          -4.5600     1.4050     0.3810 c6         1 JAC       0.235900
     15 C7          -3.3400     0.5830     0.1160 cd         1 JAC      -0.195300
     16 C8           0.1570     0.2580    -0.5240 ca         1 JAC       0.003800
     17 C9           0.9650     1.0200     0.3110 ca         1 JAC      -0.102000
     18 C10          2.3190     1.1230     0.0400 ca         1 JAC      -0.088500
     19 C11          2.8830     0.4620    -1.0480 ca         1 JAC      -0.101300
     20 C12          4.3660     0.5580    -1.3050 c3         1 JAC       0.153300
     21 C13          5.2020    -1.6140    -0.3330 c5         1 JAC       0.097000
     22 C14          5.8000    -1.9490     1.0350 c5         1 JAC      -0.091400
     23 C15          6.5650    -0.6860     1.4170 c5         1 JAC      -0.167400
     24 C16          5.8650     0.4140     0.6490 c          1 JAC       0.564000
     25 C17          2.0600    -0.3050    -1.8640 ca         1 JAC      -0.088500
     26 C18          0.7000    -0.4080    -1.6130 ca         1 JAC      -0.102000
     27 H4          -1.4160     2.8760     1.0830 hc         1 JAC       0.069700
     28 H4A         -1.1650     2.9740    -0.6550 hc         1 JAC       0.069700
     29 H5          -3.5260     3.2520    -1.0960 h1         1 JAC       0.053700
     30 H5A         -3.1480     4.3460     0.2410 h1         1 JAC       0.053700
     31 H6          -5.1660     0.9800     1.1830 h1         1 JAC       0.064200
     32 H6A         -5.1910     1.4460    -0.5170 h1         1 JAC       0.064200
     33 H9           0.5500     1.5160     1.1780 ha         1 JAC       0.134500
     34 H10          2.9460     1.7180     0.6930 ha         1 JAC       0.127500
     35 H12          4.6870     1.5990    -1.2860 h1         1 JAC       0.066700
     36 H12A         4.6030     0.1640    -2.2960 h1         1 JAC       0.066700
     37 H13          4.2140    -2.0530    -0.4770 h1         1 JAC       0.048200
     38 H13A         5.8380    -1.9520    -1.1580 h1         1 JAC       0.048200
     39 H14          4.9990    -2.1320     1.7530 hc         1 JAC       0.059200
     40 H14A         6.4260    -2.8380     1.0010 hc         1 JAC       0.059200
     41 H15          6.5720    -0.4760     2.4860 hc         1 JAC       0.077700
     42 H15A         7.6070    -0.7230     1.0850 hc         1 JAC       0.077700
     43 H17          2.4790    -0.8230    -2.7180 ha         1 JAC       0.127500
     44 H18          0.0670    -0.9970    -2.2630 ha         1 JAC       0.134500
@<TRIPOS>BOND
     1     1     2 1   
     2     1     5 1   
     3     1     6 1   
     4     1    10 1   
     5     3     5 2   
     6     3     7 1   
     7     4    13 1   
     8     4    14 1   
     9     5    15 1   
    10     7     9 1   
    11     7    16 1   
    12     8    24 2   
    13     9    12 1   
    14     9    15 2   
    15    11    20 1   
    16    11    21 1   
    17    11    24 1   
    18    12    13 1   
    19    12    27 1   
    20    12    28 1   
    21    13    29 1   
    22    13    30 1   
    23    14    15 1   
    24    14    31 1   
    25    14    32 1   
    26    16    17 ar  
    27    16    26 ar  
    28    17    18 ar  
    29    17    33 1   
    30    18    19 ar  
    31    18    34 1   
    32    19    20 1   
    33    19    25 ar  
    34    20    35 1   
    35    20    36 1   
    36    21    22 1   
    37    21    37 1   
    38    21    38 1   
    39    22    23 1   
    40    22    39 1   
    41    22    40 1   
    42    23    24 1   
    43    23    41 1   
    44    23    42 1   
    45    25    26 ar  
    46    25    43 1   
    47    26    44 1   
@<TRIPOS>SUBSTRUCTURE
     1 JAC         1 TEMP              0 ****  ****    0 ROOT
