@<TRIPOS>MOLECULE
JAC
   44    47     1     0     0
SMALL
No Charge or Current Charge


@<TRIPOS>ATOM
      1 C1          -4.0660    -1.9290     0.2570 c3         1 JAC       0.293700
      2 F1          -3.5680    -3.1750     0.0700 f          1 JAC      -0.107333
      3 N1          -1.7380    -1.1100    -0.1510 nc         1 JAC      -0.456800
      4 O1          -4.2730     2.6960     0.6170 os         1 JAC      -0.444000
      5 C2          -3.0210    -0.8350     0.0710 cd         1 JAC       0.150300
      6 F2          -5.0950    -1.7870    -0.6100 f          1 JAC      -0.107333
      7 N2          -1.1920     0.1510    -0.2620 na         1 JAC       0.250000
      8 O2           5.6670     1.3470     1.3870 o          1 JAC      -0.557000
      9 C3          -2.0820     1.2010    -0.1050 cc         1 JAC      -0.125300
     10 F3          -4.5950    -1.9020     1.5020 f          1 JAC      -0.107333
     11 N3           5.2650    -0.1320    -0.3650 n          1 JAC      -0.419800
     12 C4          -1.9160     2.6960    -0.1640 c6         1 JAC      -0.046100
     13 C5          -3.3270     3.3390    -0.2820 c6         1 JAC       0.158600
     14 C6          -4.5670     1.3060     0.3100 c6         1 JAC       0.235900
     15 C7          -3.2620     0.5670     0.1070 cd         1 JAC      -0.195300
     16 C8           0.1790     0.3100    -0.4800 ca         1 JAC       0.003800
     17 C9           0.9620     1.0720     0.4110 ca         1 JAC      -0.102000
     18 C10          2.3400     1.2330     0.1860 ca         1 JAC      -0.088500
     19 C11          2.9530     0.6330    -0.9300 ca         1 JAC      -0.101300
     20 C12          4.4490     0.8010    -1.1650 c3         1 JAC       0.153300
     21 C13          5.2720    -1.5950    -0.5740 c5         1 JAC       0.097000
     22 C14          5.6260    -2.1080     0.8570 c5         1 JAC      -0.091400
     23 C15          6.5620    -0.9720     1.3480 c5         1 JAC      -0.167400
     24 C16          5.8700     0.2810     0.8230 c          1 JAC       0.564000
     25 C17          2.1740    -0.1330    -1.8180 ca         1 JAC      -0.088500
     26 C18          0.7960    -0.2940    -1.5940 ca         1 JAC      -0.102000
     27 H4          -1.4220     3.0670     0.7440 hc         1 JAC       0.069700
     28 H4A         -1.2910     3.0010    -1.0140 hc         1 JAC       0.069700
     29 H5          -3.6970     3.2420    -1.3130 h1         1 JAC       0.053700
     30 H5A         -3.2710     4.4110    -0.0440 h1         1 JAC       0.053700
     31 H6          -5.1460     0.8690     1.1360 h1         1 JAC       0.064200
     32 H6A         -5.1800     1.2590    -0.6030 h1         1 JAC       0.064200
     33 H9           0.5040     1.5340     1.2830 ha         1 JAC       0.134500
     34 H10          2.9320     1.8210     0.8840 ha         1 JAC       0.127500
     35 H12          4.7390     1.8360    -0.9430 h1         1 JAC       0.066700
     36 H12A         4.6710     0.6310    -2.2270 h1         1 JAC       0.066700
     37 H13          4.3020    -1.9760    -0.9200 h1         1 JAC       0.048200
     38 H13A         6.0410    -1.8760    -1.3060 h1         1 JAC       0.048200
     39 H14          4.7270    -2.1760     1.4820 hc         1 JAC       0.059200
     40 H14A         6.1040    -3.0940     0.8500 hc         1 JAC       0.059200
     41 H15          6.7260    -0.9260     2.4300 hc         1 JAC       0.077700
     42 H15A         7.5210    -1.0730     0.8280 hc         1 JAC       0.077700
     43 H17          2.6360    -0.6070    -2.6820 ha         1 JAC       0.127500
     44 H18          0.2040    -0.8880    -2.2880 ha         1 JAC       0.134500
@<TRIPOS>BOND
     1     1     2 1   
     2     1     5 1   
     3     1     6 1   
     4     1    10 1   
     5     3     5 2   
     6     3     7 1   
     7     4    13 1   
     8     4    14 1   
     9     5    15 1   
    10     7     9 1   
    11     7    16 1   
    12     8    24 2   
    13     9    12 1   
    14     9    15 2   
    15    11    20 1   
    16    11    21 1   
    17    11    24 1   
    18    12    13 1   
    19    12    27 1   
    20    12    28 1   
    21    13    29 1   
    22    13    30 1   
    23    14    15 1   
    24    14    31 1   
    25    14    32 1   
    26    16    17 ar  
    27    16    26 ar  
    28    17    18 ar  
    29    17    33 1   
    30    18    19 ar  
    31    18    34 1   
    32    19    20 1   
    33    19    25 ar  
    34    20    35 1   
    35    20    36 1   
    36    21    22 1   
    37    21    37 1   
    38    21    38 1   
    39    22    23 1   
    40    22    39 1   
    41    22    40 1   
    42    23    24 1   
    43    23    41 1   
    44    23    42 1   
    45    25    26 ar  
    46    25    43 1   
    47    26    44 1   
@<TRIPOS>SUBSTRUCTURE
     1 JAC         1 TEMP              0 ****  ****    0 ROOT
