@<TRIPOS>MOLECULE
JAD
   37    39     1     0     0
SMALL
abcg2


@<TRIPOS>ATOM
      1 CL1         -3.4460    -1.7560     1.1340 cl         1 JAD      -0.174000
      2 C3          -2.5150    -0.4230     0.5610 ca         1 JAD       0.138000
      3 C2          -3.1900     0.7410     0.1880 ca         1 JAD      -0.002000
      4 C7          -4.6090     0.8190     0.2790 cg         1 JAD       0.323000
      5 N1          -5.7560     0.9110     0.3440 n1         1 JAD      -0.434000
      6 C4          -1.1300    -0.5260     0.4860 ca         1 JAD      -0.057300
      7 C8          -0.4270    -1.7580     0.9700 c3         1 JAD      -0.051800
      8 C5          -0.4260     0.5770    -0.0250 ca         1 JAD      -0.077900
      9 C6          -1.0960     1.7480    -0.3800 ca         1 JAD      -0.081000
     10 C1          -2.4680     1.8380    -0.2740 ca         1 JAD      -0.072000
     11 C9           1.0310     0.5300    -0.2070 ce         1 JAD       0.322900
     12 C11          1.8050    -0.4650    -1.0540 c5         1 JAD       0.109000
     13 O2           1.6050    -0.2060    -2.4230 os         1 JAD      -0.433000
     14 C15          0.4520    -0.8080    -2.9650 c3         1 JAD       0.142900
     15 C10          3.2240    -0.0700    -0.6700 c5         1 JAD       0.114500
     16 C14          3.8680    -0.8720     0.4900 c5         1 JAD       0.152300
     17 O1           5.1310    -1.3040     0.0350 oh         1 JAD      -0.651000
     18 C13          3.9660     0.1360     1.6420 c5         1 JAD      -0.153400
     19 C12          4.0120     1.4810     0.9230 c5         1 JAD       0.165800
     20 N3           3.0700     1.3100    -0.1800 nh         1 JAD      -0.371700
     21 N2           1.7710     1.4800     0.2180 n2         1 JAD      -0.404400
     22 H1          -0.4880    -2.5690     0.2410 hc         1 JAD       0.052367
     23 H2           0.6220    -1.5650     1.1780 hc         1 JAD       0.052367
     24 H3          -0.8710    -2.1230     1.8950 hc         1 JAD       0.052367
     25 H4          -0.5360     2.5870    -0.7670 ha         1 JAD       0.142000
     26 H5          -2.9850     2.7430    -0.5590 ha         1 JAD       0.135000
     27 H7           1.5860    -1.5160    -0.8340 h1         1 JAD       0.061700
     28 H8           0.4650    -0.6320    -4.0390 h1         1 JAD       0.035033
     29 H9           0.4410    -1.8900    -2.7920 h1         1 JAD       0.035033
     30 H10         -0.4760    -0.3900    -2.5630 h1         1 JAD       0.035033
     31 H11          3.8820    -0.1050    -1.5400 h1         1 JAD       0.126700
     32 H12          3.2500    -1.7330     0.7750 h1         1 JAD       0.040700
     33 H13          5.5490    -1.8020     0.7450 ho         1 JAD       0.447000
     34 H14          3.0730     0.0800     2.2680 hc         1 JAD       0.061700
     35 H15          4.8280    -0.0470     2.2860 hc         1 JAD       0.061700
     36 H16          3.7300     2.3350     1.5360 h1         1 JAD       0.078200
     37 H17          5.0020     1.6730     0.5070 h1         1 JAD       0.078200
@<TRIPOS>BOND
     1     1     2 1   
     2     2     3 ar  
     3     2     6 ar  
     4     3     4 1   
     5     3    10 ar  
     6     4     5 3   
     7     6     7 1   
     8     6     8 ar  
     9     7    22 1   
    10     7    23 1   
    11     7    24 1   
    12     8     9 ar  
    13     8    11 1   
    14     9    10 ar  
    15     9    25 1   
    16    10    26 1   
    17    11    12 1   
    18    11    21 2   
    19    12    13 1   
    20    12    15 1   
    21    12    27 1   
    22    13    14 1   
    23    14    28 1   
    24    14    29 1   
    25    14    30 1   
    26    15    16 1   
    27    15    20 1   
    28    15    31 1   
    29    16    17 1   
    30    16    18 1   
    31    16    32 1   
    32    17    33 1   
    33    18    19 1   
    34    18    34 1   
    35    18    35 1   
    36    19    20 1   
    37    19    36 1   
    38    19    37 1   
    39    20    21 1   
@<TRIPOS>SUBSTRUCTURE
     1 JAD         1 TEMP              0 ****  ****    0 ROOT
