@<TRIPOS>MOLECULE
JAD
   37    39     1     0     0
SMALL
No Charge or Current Charge


@<TRIPOS>ATOM
      1 Cl1         -3.6870    -1.6190     1.0400 cl         1 JAD      -0.174000
      2 C3          -2.6800    -0.2760     0.4620 ca         1 JAD       0.138000
      3 C2          -3.2990     0.9020    -0.0130 ca         1 JAD      -0.002000
      4 C7          -4.7300     1.0390    -0.0240 cg         1 JAD       0.323000
      5 N1          -5.8910     1.1630    -0.0380 n1         1 JAD      -0.434000
      6 C4          -1.2650    -0.3910     0.4690 ca         1 JAD      -0.057300
      7 C8          -0.5930    -1.6450     1.0400 c3         1 JAD      -0.051800
      8 C5          -0.4800     0.6760    -0.0470 ca         1 JAD      -0.077900
      9 C6          -1.1120     1.8530    -0.4920 ca         1 JAD      -0.081000
     10 C1          -2.5080     1.9670    -0.4770 ca         1 JAD      -0.072000
     11 C9           1.0120     0.6100    -0.1170 ce         1 JAD       0.322900
     12 C11          1.8610    -0.4480    -0.8430 c5         1 JAD       0.109000
     13 O2           1.4990    -0.5320    -2.2530 os         1 JAD      -0.433000
     14 C15          0.3250    -1.2890    -2.6000 c3         1 JAD       0.142900
     15 C10          3.2840     0.2270    -0.7740 c5         1 JAD       0.114500
     16 C14          4.2770    -0.7120     0.0040 c5         1 JAD       0.152300
     17 O1           5.6340    -0.5000    -0.3970 oh         1 JAD      -0.651000
     18 C13          4.0640    -0.2740     1.4810 c5         1 JAD      -0.153400
     19 C12          3.9410     1.2730     1.3520 c5         1 JAD       0.165800
     20 N3           3.0830     1.3800     0.1460 nh         1 JAD      -0.371700
     21 N2           1.7690     1.5010     0.4280 n2         1 JAD      -0.404400
     22 H1          -0.4810    -2.4180     0.2710 hc         1 JAD       0.052367
     23 H2           0.3990    -1.4290     1.4530 hc         1 JAD       0.052367
     24 H3          -1.1610    -2.0790     1.8700 hc         1 JAD       0.052367
     25 H4          -0.5130     2.6800    -0.8690 ha         1 JAD       0.142000
     26 H5          -2.9750     2.8820    -0.8370 ha         1 JAD       0.135000
     27 H7           1.8280    -1.4400    -0.3740 h1         1 JAD       0.061700
     28 H8           0.2300    -1.3590    -3.6910 h1         1 JAD       0.035033
     29 H9           0.3850    -2.3080    -2.1980 h1         1 JAD       0.035033
     30 H10         -0.5840    -0.8130    -2.2150 h1         1 JAD       0.035033
     31 H11          3.6610     0.5250    -1.7610 h1         1 JAD       0.126700
     32 H12          4.0240    -1.7720    -0.1380 h1         1 JAD       0.040700
     33 H13          6.1850    -1.1360     0.1120 ho         1 JAD       0.447000
     34 H14          3.1460    -0.7080     1.8940 hc         1 JAD       0.061700
     35 H15          4.8850    -0.5740     2.1420 hc         1 JAD       0.061700
     36 H16          3.4930     1.7300     2.2450 h1         1 JAD       0.078200
     37 H17          4.9180     1.7450     1.1800 h1         1 JAD       0.078200
@<TRIPOS>BOND
     1     1     2 1   
     2     2     3 ar  
     3     2     6 ar  
     4     3     4 1   
     5     3    10 ar  
     6     4     5 3   
     7     6     7 1   
     8     6     8 ar  
     9     7    22 1   
    10     7    23 1   
    11     7    24 1   
    12     8     9 ar  
    13     8    11 1   
    14     9    10 ar  
    15     9    25 1   
    16    10    26 1   
    17    11    12 1   
    18    11    21 2   
    19    12    13 1   
    20    12    15 1   
    21    12    27 1   
    22    13    14 1   
    23    14    28 1   
    24    14    29 1   
    25    14    30 1   
    26    15    16 1   
    27    15    20 1   
    28    15    31 1   
    29    16    17 1   
    30    16    18 1   
    31    16    32 1   
    32    17    33 1   
    33    18    19 1   
    34    18    34 1   
    35    18    35 1   
    36    19    20 1   
    37    19    36 1   
    38    19    37 1   
    39    20    21 1   
@<TRIPOS>SUBSTRUCTURE
     1 JAD         1 TEMP              0 ****  ****    0 ROOT
