@<TRIPOS>MOLECULE
JAE
   16    17     1     0     0
SMALL
bcc


@<TRIPOS>ATOM
      1 C10          0.9200     1.0980    -0.0780 ca         1 JAE      -0.178000
      2 N01          3.3190     0.8790    -0.1660 nv         1 JAE      -0.825200
      3 C02          2.0710     0.3100    -0.0760 ca         1 JAE       0.171600
      4 C03          1.9440    -1.0980    -0.0360 ca         1 JAE      -0.194000
      5 C04          0.7130    -1.7110    -0.0030 ca         1 JAE      -0.029000
      6 C05         -0.4460    -0.9320    -0.0100 ca         1 JAE       0.038400
      7 N06         -1.7400    -1.4000     0.0190 nc         1 JAE      -0.512100
      8 C07         -2.5770    -0.4290     0.0070 cd         1 JAE       0.380100
      9 S08         -1.8940     1.1740    -0.0420 ss         1 JAE      -0.127100
     10 C09         -0.3150     0.4640    -0.0470 ca         1 JAE      -0.003100
     11 H1           0.9950     2.1780    -0.1030 ha         1 JAE       0.142000
     12 H2           4.0820     0.3310     0.1970 hn         1 JAE       0.398300
     13 H3           3.3870     1.8480     0.1000 hn         1 JAE       0.398300
     14 H4           2.8410    -1.7050    -0.0330 ha         1 JAE       0.135000
     15 H5           0.6390    -2.7910     0.0280 ha         1 JAE       0.148000
     16 H6          -3.6510    -0.5540     0.0250 h5         1 JAE       0.057800
@<TRIPOS>BOND
     1     1     3 ar  
     2     1    10 ar  
     3     1    11 1   
     4     2     3 1   
     5     2    12 1   
     6     2    13 1   
     7     3     4 ar  
     8     4     5 ar  
     9     4    14 1   
    10     5     6 ar  
    11     5    15 1   
    12     6     7 1   
    13     6    10 ar  
    14     7     8 2   
    15     8     9 1   
    16     8    16 1   
    17     9    10 1   
@<TRIPOS>SUBSTRUCTURE
     1 JAE         1 TEMP              0 ****  ****    0 ROOT
