@<TRIPOS>MOLECULE
JAE
   16    17     1     0     0
SMALL
No Charge or Current Charge


@<TRIPOS>ATOM
      1 C10          0.9110     1.0820    -0.0610 ca         1 JAE      -0.160000
      2 N01          3.3070     0.8930    -0.0720 nv         1 JAE      -1.074000
      3 C02          2.0760     0.2970    -0.0510 ca         1 JAE       0.310000
      4 C03          1.9740    -1.1060    -0.0200 ca         1 JAE      -0.176000
      5 C04          0.7080    -1.7280     0.0010 ca         1 JAE      -0.011000
      6 C05         -0.4560    -0.9380    -0.0080 ca         1 JAE       0.038400
      7 N06         -1.7460    -1.4610     0.0120 nc         1 JAE      -0.512100
      8 C07         -2.5870    -0.4110    -0.0060 cd         1 JAE       0.380100
      9 S08         -1.8990     1.2340    -0.0460 ss         1 JAE      -0.000200
     10 C09         -0.3370     0.4400    -0.0390 ca         1 JAE      -0.130000
     11 H1           0.9730     2.1670    -0.0860 ha         1 JAE       0.124000
     12 H2           4.1430     0.3330     0.0870 hn         1 JAE       0.453500
     13 H3           3.3860     1.9000     0.0570 hn         1 JAE       0.453500
     14 H4           2.8710    -1.7180    -0.0140 ha         1 JAE       0.117000
     15 H5           0.6300    -2.8120     0.0250 ha         1 JAE       0.130000
     16 H6          -3.6650    -0.5110     0.0030 h5         1 JAE       0.057800
@<TRIPOS>BOND
     1     1     3 ar  
     2     1    10 ar  
     3     1    11 1   
     4     2     3 1   
     5     2    12 1   
     6     2    13 1   
     7     3     4 ar  
     8     4     5 ar  
     9     4    14 1   
    10     5     6 ar  
    11     5    15 1   
    12     6     7 1   
    13     6    10 ar  
    14     7     8 2   
    15     8     9 1   
    16     8    16 1   
    17     9    10 1   
@<TRIPOS>SUBSTRUCTURE
     1 JAE         1 TEMP              0 ****  ****    0 ROOT
