@<TRIPOS>MOLECULE
JAF
   38    39     1     0     0
SMALL
bcc


@<TRIPOS>ATOM
      1 CAB          3.5240     1.7120    -0.6900 c3         1 JAF      -0.056800
      2 CAO          2.9870     0.3810    -0.2510 ca         1 JAF      -0.015300
      3 CAK          3.6910    -0.7670    -0.5990 ca         1 JAF      -0.201000
      4 CAQ          3.2690    -2.0190    -0.1730 ca         1 JAF       0.155100
      5 OAF          3.9250    -3.1520    -0.4880 oh         1 JAF      -0.492100
      6 CAL          2.1400    -2.1270     0.6320 ca         1 JAF      -0.201000
      7 CAP          1.4060    -1.0020     0.9790 ca         1 JAF      -0.015300
      8 CAC          0.2080    -1.1770     1.8680 c3         1 JAF      -0.056800
      9 CAT          1.8190     0.2550     0.5100 ca         1 JAF       0.056600
     10 NAM          1.0980     1.4310     0.8560 nu         1 JAF      -0.690500
     11 SAU         -0.0460     2.0530    -0.1720 sy         1 JAF       1.303200
     12 OAD         -0.5160     3.2680     0.4730 o          1 JAF      -0.608800
     13 OAE          0.5480     2.1070    -1.4960 o          1 JAF      -0.608800
     14 CAS         -1.3820     0.9080    -0.2460 ca         1 JAF      -0.355500
     15 CAI         -2.4150     0.9920     0.6750 ca         1 JAF       0.009000
     16 CAG         -3.4300     0.0490     0.6680 ca         1 JAF      -0.219500
     17 CAR         -3.4090    -0.9870    -0.2670 ca         1 JAF       0.196100
     18 OAN         -4.3370    -1.9440    -0.3500 os         1 JAF      -0.310900
     19 CAA         -5.4120    -1.9400     0.5740 c3         1 JAF       0.122700
     20 CAH         -2.3650    -1.0590    -1.1970 ca         1 JAF      -0.219500
     21 CAJ         -1.3580    -0.1170    -1.1890 ca         1 JAF       0.009000
     22 H1           3.1620     1.9760    -1.6830 hc         1 JAF       0.051867
     23 H2           3.2280     2.5110    -0.0130 hc         1 JAF       0.051867
     24 H3           4.6120     1.6830    -0.7340 hc         1 JAF       0.051867
     25 H4           4.5930    -0.6730    -1.1950 ha         1 JAF       0.142000
     26 H5           4.6950    -2.9550    -1.0320 ho         1 JAF       0.429000
     27 H6           1.8340    -3.1020     0.9930 ha         1 JAF       0.142000
     28 H7          -0.7170    -1.2110     1.2920 hc         1 JAF       0.051867
     29 H8           0.2770    -2.1140     2.4180 hc         1 JAF       0.051867
     30 H9           0.1010    -0.3790     2.6020 hc         1 JAF       0.051867
     31 H10          0.8190     1.5220     1.8270 hn         1 JAF       0.432800
     32 H11         -2.4420     1.7830     1.4110 ha         1 JAF       0.155500
     33 H12         -4.2220     0.1400     1.3990 ha         1 JAF       0.146500
     34 H13         -6.0110    -1.0300     0.4960 h1         1 JAF       0.046700
     35 H14         -6.0350    -2.7930     0.3220 h1         1 JAF       0.046700
     36 H15         -5.0610    -2.0500     1.6020 h1         1 JAF       0.046700
     37 H16         -2.3550    -1.8590    -1.9260 ha         1 JAF       0.146500
     38 H17         -0.5620    -0.1880    -1.9170 ha         1 JAF       0.155500
@<TRIPOS>BOND
     1     1     2 1   
     2     1    22 1   
     3     1    23 1   
     4     1    24 1   
     5     2     3 ar  
     6     2     9 ar  
     7     3     4 ar  
     8     3    25 1   
     9     4     5 1   
    10     4     6 ar  
    11     5    26 1   
    12     6     7 ar  
    13     6    27 1   
    14     7     8 1   
    15     7     9 ar  
    16     8    28 1   
    17     8    29 1   
    18     8    30 1   
    19     9    10 1   
    20    10    11 1   
    21    10    31 1   
    22    11    12 2   
    23    11    13 2   
    24    11    14 1   
    25    14    15 ar  
    26    14    21 ar  
    27    15    16 ar  
    28    15    32 1   
    29    16    17 ar  
    30    16    33 1   
    31    17    18 1   
    32    17    20 ar  
    33    18    19 1   
    34    19    34 1   
    35    19    35 1   
    36    19    36 1   
    37    20    21 ar  
    38    20    37 1   
    39    21    38 1   
@<TRIPOS>SUBSTRUCTURE
     1 JAF         1 TEMP              0 ****  ****    0 ROOT
