@<TRIPOS>MOLECULE
JAF
   38    39     1     0     0
SMALL
No Charge or Current Charge


@<TRIPOS>ATOM
      1 CAB          3.3740     1.5390    -1.0910 c3         1 JAF      -0.056800
      2 CAO          2.8310     0.2830    -0.4120 ca         1 JAF      -0.015300
      3 CAK          3.4020    -0.9520    -0.7790 ca         1 JAF      -0.183000
      4 CAQ          2.9930    -2.1380    -0.1590 ca         1 JAF       0.155100
      5 OAF          3.5480    -3.3290    -0.5160 oh         1 JAF      -0.531100
      6 CAL          2.0240    -2.1030     0.8470 ca         1 JAF      -0.183000
      7 CAP          1.4360    -0.8830     1.2360 ca         1 JAF      -0.015300
      8 CAC          0.3910    -0.9120     2.3520 c3         1 JAF      -0.056800
      9 CAT          1.8140     0.3240     0.5850 ca         1 JAF       0.195000
     10 NAM          1.2020     1.5330     0.9530 nu         1 JAF      -0.884100
     11 SAU         -0.0560     2.2980     0.1360 sy         1 JAF       1.161600
     12 OAD         -0.5180     3.2950     1.1020 o          1 JAF      -0.538000
     13 OAE          0.5110     2.6650    -1.1630 o          1 JAF      -0.538000
     14 CAS         -1.3010     1.0280    -0.0800 ca         1 JAF      -0.355500
     15 CAI         -2.4320     0.9860     0.7590 ca         1 JAF       0.027000
     16 CAG         -3.3900    -0.0280     0.5920 ca         1 JAF      -0.201500
     17 CAR         -3.2220    -1.0040    -0.4130 ca         1 JAF       0.196100
     18 OAN         -4.1280    -2.0230    -0.6200 os         1 JAF      -0.334100
     19 CAA         -5.3150    -2.1690     0.1800 c3         1 JAF       0.145900
     20 CAH         -2.0940    -0.9530    -1.2450 ca         1 JAF      -0.201500
     21 CAJ         -1.1330     0.0580    -1.0860 ca         1 JAF       0.027000
     22 H1           2.8610     1.7250    -2.0410 hc         1 JAF       0.051867
     23 H2           3.2650     2.4310    -0.4630 hc         1 JAF       0.051867
     24 H3           4.4430     1.4380    -1.3110 hc         1 JAF       0.051867
     25 H4           4.1720    -0.9800    -1.5460 ha         1 JAF       0.124000
     26 H5           4.2060    -3.1650    -1.2260 ho         1 JAF       0.468000
     27 H6           1.7280    -3.0300     1.3300 ha         1 JAF       0.124000
     28 H7          -0.6230    -0.8290     1.9460 hc         1 JAF       0.051867
     29 H8           0.4350    -1.8500     2.9190 hc         1 JAF       0.051867
     30 H9           0.5410    -0.1010     3.0740 hc         1 JAF       0.051867
     31 H10          0.8510     1.5480     1.9000 hn         1 JAF       0.488000
     32 H11         -2.5730     1.7300     1.5430 ha         1 JAF       0.137500
     33 H12         -4.2520    -0.0400     1.2520 ha         1 JAF       0.128500
     34 H13         -5.9570    -1.2830     0.0910 h1         1 JAF       0.046700
     35 H14         -5.8920    -3.0410    -0.1510 h1         1 JAF       0.046700
     36 H15         -5.0580    -2.3130     1.2370 h1         1 JAF       0.046700
     37 H16         -1.9630    -1.7050    -2.0190 ha         1 JAF       0.128500
     38 H17         -0.2590     0.0780    -1.7370 ha         1 JAF       0.137500
@<TRIPOS>BOND
     1     1     2 1   
     2     1    22 1   
     3     1    23 1   
     4     1    24 1   
     5     2     3 ar  
     6     2     9 ar  
     7     3     4 ar  
     8     3    25 1   
     9     4     5 1   
    10     4     6 ar  
    11     5    26 1   
    12     6     7 ar  
    13     6    27 1   
    14     7     8 1   
    15     7     9 ar  
    16     8    28 1   
    17     8    29 1   
    18     8    30 1   
    19     9    10 1   
    20    10    11 1   
    21    10    31 1   
    22    11    12 2   
    23    11    13 2   
    24    11    14 1   
    25    14    15 ar  
    26    14    21 ar  
    27    15    16 ar  
    28    15    32 1   
    29    16    17 ar  
    30    16    33 1   
    31    17    18 1   
    32    17    20 ar  
    33    18    19 1   
    34    19    34 1   
    35    19    35 1   
    36    19    36 1   
    37    20    21 ar  
    38    20    37 1   
    39    21    38 1   
@<TRIPOS>SUBSTRUCTURE
     1 JAF         1 TEMP              0 ****  ****    0 ROOT
