@<TRIPOS>MOLECULE
JAG
   50    53     1     0     0
SMALL
abcg2


@<TRIPOS>ATOM
      1 F2         -65.4070   -73.8880    29.0620 f          1 JAG      -0.109667
      2 C22        -65.4740   -72.5860    29.2910 c3         1 JAG       0.512000
      3 F          -66.6390   -72.3260    29.8890 f          1 JAG      -0.109667
      4 F1         -64.5160   -72.2630    30.1610 f          1 JAG      -0.109667
      5 O2         -65.3430   -71.9580    28.1170 os         1 JAG      -0.397100
      6 C19        -65.3300   -70.5660    28.1300 ca         1 JAG       0.059100
      7 C18        -64.1150   -69.9040    28.1830 ca         1 JAG      -0.070000
      8 C17        -64.0940   -68.5200    28.1440 ca         1 JAG      -0.146500
      9 C20        -66.5200   -69.8690    28.0250 ca         1 JAG      -0.070000
     10 C21        -66.5000   -68.4830    27.9810 ca         1 JAG      -0.146500
     11 C16        -65.2850   -67.8110    28.0470 ca         1 JAG       0.142100
     12 O1         -65.1850   -66.4560    27.9680 os         1 JAG      -0.248200
     13 C13        -66.2210   -65.6720    28.4040 ca         1 JAG       0.107100
     14 C12        -66.7030   -65.7770    29.7040 ca         1 JAG      -0.125000
     15 C11        -67.7130   -64.9280    30.1220 ca         1 JAG      -0.080000
     16 C14        -66.7390   -64.7290    27.5340 ca         1 JAG      -0.125000
     17 C15        -67.7460   -63.8780    27.9720 ca         1 JAG      -0.080000
     18 C10        -68.2480   -63.9720    29.2610 ca         1 JAG      -0.070300
     19 C7         -69.3360   -63.0500    29.7510 c6         1 JAG      -0.225700
     20 C8         -68.7870   -62.0510    30.7580 c          1 JAG       0.586300
     21 O          -67.7260   -61.4900    30.5470 o          1 JAG      -0.512100
     22 C5         -69.5960   -61.8190    31.9350 ce         1 JAG      -0.238400
     23 C          -69.2040   -60.8300    32.9880 c6         1 JAG      -0.021200
     24 C6         -70.5720   -63.7900    30.1900 c2         1 JAG       0.472300
     25 C9         -71.0990   -64.8350    29.2650 c3         1 JAG      -0.142400
     26 N          -71.2050   -63.5340    31.2690 nf         1 JAG      -0.586300
     27 C4         -70.7180   -62.5530    32.1280 cf         1 JAG       0.163400
     28 C3         -71.4970   -62.3140    33.3780 c6         1 JAG      -0.038200
     29 C2         -71.6840   -60.8130    33.6500 c6         1 JAG      -0.071400
     30 C1         -70.4100   -59.9810    33.4070 c6         1 JAG      -0.073400
     31 H1         -63.1890   -70.4590    28.2500 ha         1 JAG       0.136500
     32 H2         -63.1520   -67.9890    28.1880 ha         1 JAG       0.136000
     33 H3         -67.4640   -70.3930    27.9540 ha         1 JAG       0.136500
     34 H4         -67.4330   -67.9430    27.8850 ha         1 JAG       0.136000
     35 H5         -66.2910   -66.5080    30.3890 ha         1 JAG       0.132000
     36 H6         -68.0810   -65.0160    31.1380 ha         1 JAG       0.121000
     37 H7         -66.3580   -64.6540    26.5240 ha         1 JAG       0.132000
     38 H8         -68.1520   -63.1410    27.2890 ha         1 JAG       0.121000
     39 H9         -69.6740   -62.4380    28.9000 hc         1 JAG       0.098700
     40 H10        -68.8090   -61.3630    33.8590 hc         1 JAG       0.059200
     41 H11        -68.3980   -60.1880    32.6320 hc         1 JAG       0.059200
     42 H12        -72.0660   -65.1970    29.6060 hc         1 JAG       0.060700
     43 H13        -71.2030   -64.4340    28.2540 hc         1 JAG       0.060700
     44 H14        -70.4110   -65.6790    29.1960 hc         1 JAG       0.060700
     45 H15        -72.4600   -62.8210    33.3230 hc         1 JAG       0.063700
     46 H16        -70.9530   -62.7690    34.2140 hc         1 JAG       0.063700
     47 H17        -72.0330   -60.6910    34.6760 hc         1 JAG       0.044200
     48 H18        -70.1500   -59.4120    34.3000 hc         1 JAG       0.044200
     49 H19        -72.4880   -60.4480    33.0090 hc         1 JAG       0.044200
     50 H20        -70.5970   -59.2480    32.6200 hc         1 JAG       0.044200
@<TRIPOS>BOND
     1     1     2 1   
     2     2     3 1   
     3     2     4 1   
     4     2     5 1   
     5     5     6 1   
     6     6     7 ar  
     7     6     9 ar  
     8     7     8 ar  
     9     7    31 1   
    10     8    11 ar  
    11     8    32 1   
    12     9    10 ar  
    13     9    33 1   
    14    10    11 ar  
    15    10    34 1   
    16    11    12 1   
    17    12    13 1   
    18    13    14 ar  
    19    13    16 ar  
    20    14    15 ar  
    21    14    35 1   
    22    15    18 ar  
    23    15    36 1   
    24    16    17 ar  
    25    16    37 1   
    26    17    18 ar  
    27    17    38 1   
    28    18    19 1   
    29    19    20 1   
    30    19    24 1   
    31    19    39 1   
    32    20    21 2   
    33    20    22 1   
    34    22    23 1   
    35    22    27 2   
    36    23    30 1   
    37    23    40 1   
    38    23    41 1   
    39    24    25 1   
    40    24    26 2   
    41    25    42 1   
    42    25    43 1   
    43    25    44 1   
    44    26    27 1   
    45    27    28 1   
    46    28    29 1   
    47    28    45 1   
    48    28    46 1   
    49    29    30 1   
    50    29    47 1   
    51    29    49 1   
    52    30    48 1   
    53    30    50 1   
@<TRIPOS>SUBSTRUCTURE
     1 JAG         1 TEMP              0 ****  ****    0 ROOT
