@<TRIPOS>MOLECULE
JAG
   50    53     1     0     0
SMALL
No Charge or Current Charge


@<TRIPOS>ATOM
      1 F2         -65.5850   -73.5930    30.4300 f          1 JAG      -0.109667
      2 C22        -66.0360   -72.4190    29.9350 c3         1 JAG       0.512000
      3 F          -66.5320   -72.6770    28.7030 f          1 JAG      -0.109667
      4 F1         -67.0620   -72.0280    30.7250 f          1 JAG      -0.109667
      5 O2         -64.9750   -71.4410    29.8990 os         1 JAG      -0.397100
      6 C19        -65.1290   -70.1430    29.4460 ca         1 JAG       0.059100
      7 C18        -63.9960   -69.3110    29.4760 ca         1 JAG      -0.070000
      8 C17        -64.0740   -67.9780    29.0330 ca         1 JAG      -0.146500
      9 C20        -66.3540   -69.6260    28.9570 ca         1 JAG      -0.070000
     10 C21        -66.4290   -68.2930    28.5140 ca         1 JAG      -0.146500
     11 C16        -65.2910   -67.4650    28.5620 ca         1 JAG       0.142100
     12 O1         -65.3400   -66.1610    28.1220 os         1 JAG      -0.248200
     13 C13        -66.4230   -65.3390    28.3370 ca         1 JAG       0.107100
     14 C12        -67.1280   -65.3680    29.5550 ca         1 JAG      -0.125000
     15 C11        -68.2240   -64.5110    29.7550 ca         1 JAG      -0.080000
     16 C14        -66.8030   -64.4370    27.3330 ca         1 JAG      -0.125000
     17 C15        -67.8980   -63.5780    27.5320 ca         1 JAG      -0.080000
     18 C10        -68.6190   -63.6110    28.7420 ca         1 JAG      -0.070300
     19 C7         -69.8150   -62.6640    28.9450 c6         1 JAG      -0.225700
     20 C8         -69.4430   -61.5520    29.9160 c          1 JAG       0.586300
     21 O          -68.9180   -60.5130    29.5350 o          1 JAG      -0.512100
     22 C5         -69.7210   -61.8510    31.3440 ce         1 JAG      -0.238400
     23 C          -68.8310   -61.1880    32.4090 c6         1 JAG      -0.021200
     24 C6         -71.0780   -63.3640    29.4110 c2         1 JAG       0.472300
     25 C9         -71.8820   -64.0930    28.3610 c3         1 JAG      -0.142400
     26 N          -71.4320   -63.4350    30.6730 nf         1 JAG      -0.586300
     27 C4         -70.6610   -62.7860    31.6520 cf         1 JAG       0.163400
     28 C3         -70.9750   -63.1960    33.1020 c6         1 JAG      -0.038200
     29 C2         -69.8830   -62.7470    34.1040 c6         1 JAG      -0.071400
     30 C1         -69.4410   -61.2970    33.8230 c6         1 JAG      -0.073400
     31 H1         -63.0510   -69.7030    29.8460 ha         1 JAG       0.136500
     32 H2         -63.1930   -67.3430    29.0580 ha         1 JAG       0.136000
     33 H3         -67.2510   -70.2360    28.9100 ha         1 JAG       0.136500
     34 H4         -67.3700   -67.9070    28.1300 ha         1 JAG       0.136000
     35 H5         -66.8280   -66.0490    30.3480 ha         1 JAG       0.132000
     36 H6         -68.7570   -64.5510    30.7000 ha         1 JAG       0.121000
     37 H7         -66.2500   -64.4050    26.3970 ha         1 JAG       0.132000
     38 H8         -68.1810   -62.8860    26.7410 ha         1 JAG       0.121000
     39 H9         -70.0200   -62.1620    27.9910 hc         1 JAG       0.098700
     40 H10        -67.8400   -61.6640    32.3960 hc         1 JAG       0.059200
     41 H11        -68.6680   -60.1280    32.1680 hc         1 JAG       0.059200
     42 H12        -72.7640   -64.5780    28.7940 hc         1 JAG       0.060700
     43 H13        -72.2280   -63.4010    27.5850 hc         1 JAG       0.060700
     44 H14        -71.2760   -64.8680    27.8780 hc         1 JAG       0.060700
     45 H15        -71.9420   -62.7600    33.3870 hc         1 JAG       0.063700
     46 H16        -71.0940   -64.2860    33.1630 hc         1 JAG       0.063700
     47 H17        -69.0150   -63.4160    34.0280 hc         1 JAG       0.044200
     48 H18        -68.7070   -60.9710    34.5730 hc         1 JAG       0.044200
     49 H19        -70.2600   -62.8380    35.1320 hc         1 JAG       0.044200
     50 H20        -70.3030   -60.6210    33.9120 hc         1 JAG       0.044200
@<TRIPOS>BOND
     1     1     2 1   
     2     2     3 1   
     3     2     4 1   
     4     2     5 1   
     5     5     6 1   
     6     6     7 ar  
     7     6     9 ar  
     8     7     8 ar  
     9     7    31 1   
    10     8    11 ar  
    11     8    32 1   
    12     9    10 ar  
    13     9    33 1   
    14    10    11 ar  
    15    10    34 1   
    16    11    12 1   
    17    12    13 1   
    18    13    14 ar  
    19    13    16 ar  
    20    14    15 ar  
    21    14    35 1   
    22    15    18 ar  
    23    15    36 1   
    24    16    17 ar  
    25    16    37 1   
    26    17    18 ar  
    27    17    38 1   
    28    18    19 1   
    29    19    20 1   
    30    19    24 1   
    31    19    39 1   
    32    20    21 2   
    33    20    22 1   
    34    22    23 1   
    35    22    27 2   
    36    23    30 1   
    37    23    40 1   
    38    23    41 1   
    39    24    25 1   
    40    24    26 2   
    41    25    42 1   
    42    25    43 1   
    43    25    44 1   
    44    26    27 1   
    45    27    28 1   
    46    28    29 1   
    47    28    45 1   
    48    28    46 1   
    49    29    30 1   
    50    29    47 1   
    51    29    49 1   
    52    30    48 1   
    53    30    50 1   
@<TRIPOS>SUBSTRUCTURE
     1 JAG         1 TEMP              0 ****  ****    0 ROOT
