@<TRIPOS>MOLECULE
JAH
   26    27     1     0     0
SMALL
bcc


@<TRIPOS>ATOM
      1 C10         -2.2760     1.1700     0.1010 ca         1 JAH      -0.100500
      2 C13         -3.7020    -1.2030    -0.0300 ca         1 JAH      -0.137000
      3 N01          4.8140    -0.3420     0.7660 n8         1 JAH      -0.887800
      4 C03          2.6420     0.0730    -0.2670 ca         1 JAH      -0.207600
      5 C04          2.0290    -1.0930     0.1800 ca         1 JAH      -0.067000
      6 C05          0.6500    -1.1530     0.2640 ca         1 JAH      -0.241300
      7 C06         -0.1050    -0.0370    -0.1010 cp         1 JAH       0.472800
      8 N07          0.4800     1.0870    -0.5090 nb         1 JAH      -0.674000
      9 C08          1.8020     1.1320    -0.5830 ca         1 JAH       0.408200
     10 C09         -1.5830    -0.0350    -0.0310 cp         1 JAH      -0.147500
     11 C11         -3.6600     1.1870     0.1760 ca         1 JAH      -0.137000
     12 C12         -4.3790     0.0000     0.1110 ca         1 JAH      -0.118000
     13 C14         -2.3160    -1.2210    -0.0990 ca         1 JAH      -0.100500
     14 H1          -1.7220     2.0980     0.1530 ha         1 JAH       0.139000
     15 H2          -4.2530    -2.1320    -0.0930 ha         1 JAH       0.131000
     16 H3           5.8120    -0.3530     0.5960 hn         1 JAH       0.342300
     17 H4           4.6710     0.2810     1.5510 hn         1 JAH       0.342300
     18 H6           4.3850     1.2340    -0.6340 h1         1 JAH       0.036700
     19 H7           4.4550    -0.3940    -1.2700 h1         1 JAH       0.036700
     20 H8           2.6270    -1.9470     0.4720 ha         1 JAH       0.152000
     21 H9           0.1720    -2.0510     0.6290 ha         1 JAH       0.142000
     22 H10          2.2280     2.0750    -0.9160 h4         1 JAH       0.014100
     23 H11         -4.1790     2.1310     0.2900 ha         1 JAH       0.131000
     24 H12         -5.4600     0.0130     0.1670 ha         1 JAH       0.130000
     25 H13         -1.8100    -2.1690    -0.2290 ha         1 JAH       0.139000
     26 C02          4.1350     0.1900    -0.4030 c3         1 JAH       0.202100
@<TRIPOS>BOND
     1     1    10 ar  
     2     1    11 ar  
     3     1    14 1   
     4     2    12 ar  
     5     2    13 ar  
     6     2    15 1   
     7     3    16 1   
     8     3    17 1   
     9     3    26 1   
    10     4     5 ar  
    11     4     9 ar  
    12     4    26 1   
    13     5     6 ar  
    14     5    20 1   
    15     6     7 ar  
    16     6    21 1   
    17     7     8 ar  
    18     7    10 1   
    19     8     9 ar  
    20     9    22 1   
    21    10    13 ar  
    22    11    12 ar  
    23    11    23 1   
    24    12    24 1   
    25    13    25 1   
    26    18    26 1   
    27    19    26 1   
@<TRIPOS>SUBSTRUCTURE
     1 JAH         1 TEMP              0 ****  ****    0 ROOT
