@<TRIPOS>MOLECULE
JAH
   26    27     1     0     0
SMALL
No Charge or Current Charge


@<TRIPOS>ATOM
      1 C10         -2.3020     1.1890     0.1640 ca         1 JAH      -0.082500
      2 C13         -3.7770    -1.1870    -0.0540 ca         1 JAH      -0.119000
      3 N01          4.8660    -0.1220     0.8690 n8         1 JAH      -0.998200
      4 C03          2.6850    -0.0090    -0.2900 ca         1 JAH      -0.142300
      5 C04          2.0620    -1.2090     0.0950 ca         1 JAH      -0.049000
      6 C05          0.6610    -1.2330     0.1890 ca         1 JAH      -0.158000
      7 C06         -0.0930    -0.0670    -0.1060 cp         1 JAH       0.407500
      8 N07          0.5240     1.0820    -0.4700 nb         1 JAH      -0.674000
      9 C08          1.8730     1.1070    -0.5620 ca         1 JAH       0.342900
     10 C09         -1.5980    -0.0340    -0.0220 cp         1 JAH      -0.147500
     11 C11         -3.7050     1.2200     0.2440 ca         1 JAH      -0.119000
     12 C12         -4.4440     0.0330     0.1370 ca         1 JAH      -0.100000
     13 C14         -2.3740    -1.2210    -0.1330 ca         1 JAH      -0.082500
     14 H1          -1.7560     2.1250     0.2570 ha         1 JAH       0.121000
     15 H2          -4.3480    -2.1080    -0.1440 ha         1 JAH       0.113000
     16 H3           5.8770     0.0160     0.7450 hn         1 JAH       0.397500
     17 H4           4.5940     0.6360     1.5060 hn         1 JAH       0.397500
     18 H6           4.4800     1.0670    -0.8220 h1         1 JAH       0.036700
     19 H7           4.5460    -0.6840    -1.1320 h1         1 JAH       0.036700
     20 H8           2.6500    -2.0970     0.3190 ha         1 JAH       0.134000
     21 H9           0.1670    -2.1450     0.5040 ha         1 JAH       0.124000
     22 H10          2.3150     2.0560    -0.8650 h4         1 JAH       0.014100
     23 H11         -4.2190     2.1680     0.3910 ha         1 JAH       0.113000
     24 H12         -5.5300     0.0580     0.1980 ha         1 JAH       0.112000
     25 H13         -1.8930    -2.1810    -0.3000 ha         1 JAH       0.121000
     26 C02          4.1950     0.0820    -0.4270 c3         1 JAH       0.202100
@<TRIPOS>BOND
     1     1    10 ar  
     2     1    11 ar  
     3     1    14 1   
     4     2    12 ar  
     5     2    13 ar  
     6     2    15 1   
     7     3    16 1   
     8     3    17 1   
     9     3    26 1   
    10     4     5 ar  
    11     4     9 ar  
    12     4    26 1   
    13     5     6 ar  
    14     5    20 1   
    15     6     7 ar  
    16     6    21 1   
    17     7     8 ar  
    18     7    10 1   
    19     8     9 ar  
    20     9    22 1   
    21    10    13 ar  
    22    11    12 ar  
    23    11    23 1   
    24    12    24 1   
    25    13    25 1   
    26    18    26 1   
    27    19    26 1   
@<TRIPOS>SUBSTRUCTURE
     1 JAH         1 TEMP              0 ****  ****    0 ROOT
