@<TRIPOS>MOLECULE
JAI
   51    51     1     0     0
SMALL
No Charge or Current Charge


@<TRIPOS>ATOM
      1 C           -3.9350    -1.4780    -0.8350 c          1 JAI       0.725000
      2 N           -1.8760    -0.1490    -0.2980 ns         1 JAI      -0.467900
      3 O1          -3.5410    -1.6560    -1.9810 o          1 JAI      -0.726500
      4 O2          -4.6660    -2.2710    -0.2560 o          1 JAI      -0.726500
      5 CA          -3.3230    -0.3010    -0.0020 c3         1 JAI      -0.028300
      6 CB          -4.1030     1.0440    -0.1600 c3         1 JAI      -0.047700
      7 C01          5.2420     3.8980    -0.0950 c3         1 JAI      -0.084100
      8 C02          4.9660     2.6110    -0.8920 c3         1 JAI      -0.044200
      9 C03          5.7450     1.4260    -0.3500 c2         1 JAI      -0.236200
     10 C04          5.2770     0.4490     0.4460 c2         1 JAI      -0.197200
     11 C05          3.8730     0.3340     1.0100 c3         1 JAI      -0.028200
     12 C06          2.9110    -0.4740     0.1050 c5         1 JAI      -0.175700
     13 C07          3.3510    -1.9430    -0.0490 c          1 JAI       0.577100
     14 C09          2.3730    -2.7130     0.8330 c5         1 JAI      -0.186400
     15 C10          1.0350    -2.0180     0.4680 c5         1 JAI      -0.084400
     16 C11          1.4340    -0.5160     0.6440 c5         1 JAI      -0.052700
     17 C13         -0.9430     0.4220     0.5390 c          1 JAI       0.596100
     18 O14         -1.2260     0.8560     1.6480 o          1 JAI      -0.608100
     19 CG1         -5.5580     0.9250     0.3770 c3         1 JAI      -0.070400
     20 CG2         -4.0500     1.6020    -1.6070 c3         1 JAI      -0.077100
     21 HN          -1.5430    -0.4810    -1.1950 hn         1 JAI       0.287500
     22 HA          -3.3980    -0.6040     1.0500 h1         1 JAI       0.053700
     23 HB          -3.5970     1.7780     0.4780 hc         1 JAI       0.005700
     24 H01          4.9500     3.7710     0.9550 hc         1 JAI       0.029367
     25 H01A         6.3070     4.1550    -0.1300 hc         1 JAI       0.029367
     26 H01B         4.6710     4.7360    -0.5110 hc         1 JAI       0.029367
     27 H02          3.8880     2.4140    -0.8790 hc         1 JAI       0.042700
     28 H02A         5.2300     2.7780    -1.9430 hc         1 JAI       0.042700
     29 H03          6.7860     1.3980    -0.6800 ha         1 JAI       0.158000
     30 H04          5.9470    -0.3560     0.7600 ha         1 JAI       0.178000
     31 H05          3.9200    -0.1190     2.0090 hc         1 JAI       0.051200
     32 H05A         3.4570     1.3370     1.1700 hc         1 JAI       0.051200
     33 H06          2.9700    -0.0180    -0.8890 hc         1 JAI       0.066700
     34 H09          2.3890    -3.7870     0.6180 hc         1 JAI       0.070200
     35 H09A         2.5910    -2.5140     1.8880 hc         1 JAI       0.070200
     36 H10          0.7310    -2.2440    -0.5620 hc         1 JAI       0.077200
     37 H10A         0.2100    -2.3160     1.1270 hc         1 JAI       0.077200
     38 H11          1.4220    -0.2720     1.7160 hc         1 JAI       0.078700
     39 H12          0.8640     1.5090     0.1280 hc         1 JAI       0.042700
     40 H12A         0.4520     0.2930    -1.1140 hc         1 JAI       0.042700
     41 HD1         -5.7560     2.9860     1.0840 hc         1 JAI       0.016033
     42 HD1A        -6.5020     2.6970    -0.5070 hc         1 JAI       0.016033
     43 HD1B        -7.2940     2.1070     0.9630 hc         1 JAI       0.016033
     44 HG1         -6.1340     0.2420    -0.2600 hc         1 JAI       0.057700
     45 HG1A        -5.5310     0.4710     1.3750 hc         1 JAI       0.057700
     46 HG2         -4.4550     2.6190    -1.6510 hc         1 JAI       0.026367
     47 HG2A        -3.0180     1.6490    -1.9740 hc         1 JAI       0.026367
     48 HG2B        -4.6300     0.9740    -2.2930 hc         1 JAI       0.026367
     49 CD1         -6.3210     2.2630     0.4830 c3         1 JAI      -0.086100
     50 C12          0.4780     0.4960    -0.0360 c3         1 JAI      -0.153400
     51 O3           4.0010    -2.4250    -0.9690 o          1 JAI      -0.544100
@<TRIPOS>BOND
     1     1     3 1   
     2     1     4 1   
     3     1     5 1   
     4     2     5 1   
     5     2    17 1   
     6     2    21 1   
     7     5     6 1   
     8     5    22 1   
     9     6    19 1   
    10     6    20 1   
    11     6    23 1   
    12     7     8 1   
    13     7    24 1   
    14     7    25 1   
    15     7    26 1   
    16     8     9 1   
    17     8    27 1   
    18     8    28 1   
    19     9    10 2   
    20     9    29 1   
    21    10    11 1   
    22    10    30 1   
    23    11    12 1   
    24    11    31 1   
    25    11    32 1   
    26    12    13 1   
    27    12    16 1   
    28    12    33 1   
    29    13    14 1   
    30    13    51 2   
    31    14    15 1   
    32    14    34 1   
    33    14    35 1   
    34    15    16 1   
    35    15    36 1   
    36    15    37 1   
    37    16    38 1   
    38    16    50 1   
    39    17    18 2   
    40    17    50 1   
    41    19    44 1   
    42    19    45 1   
    43    19    49 1   
    44    20    46 1   
    45    20    47 1   
    46    20    48 1   
    47    39    50 1   
    48    40    50 1   
    49    41    49 1   
    50    42    49 1   
    51    43    49 1   
@<TRIPOS>SUBSTRUCTURE
     1 JAI         1 TEMP              0 ****  ****    0 ROOT
