@<TRIPOS>MOLECULE
JAI
   51    51     1     0     0
SMALL
bcc


@<TRIPOS>ATOM
      1 C           -3.2300    -0.7370     1.5140 c          1 JAI       0.935600
      2 N           -1.6720     0.8660     0.4030 ns         1 JAI      -0.534900
      3 O1          -2.5430    -1.6760     1.0750 o          1 JAI      -0.831800
      4 O2          -4.1170    -0.8030     2.3890 o          1 JAI      -0.831800
      5 CA          -3.0180     0.6670     0.8930 c3         1 JAI      -0.028300
      6 CB          -4.0060     0.9420    -0.2580 c3         1 JAI      -0.047700
      7 C01          5.4700     3.6070     0.8990 c3         1 JAI      -0.084100
      8 C02          4.8250     2.7560    -0.1950 c3         1 JAI      -0.044200
      9 C03          5.5660     1.4730    -0.4140 c2         1 JAI      -0.186200
     10 C04          5.1680     0.2530    -0.0550 c2         1 JAI      -0.147200
     11 C05          3.8740    -0.0700     0.6330 c3         1 JAI      -0.028200
     12 C06          2.7480    -0.4800    -0.3190 c5         1 JAI      -0.175700
     13 C07          2.8970    -1.8670    -0.9150 c          1 JAI       0.577100
     14 C09          1.5300    -2.5080    -1.0260 c5         1 JAI      -0.186400
     15 C10          0.5490    -1.3980    -0.6650 c5         1 JAI      -0.084400
     16 C11          1.3440    -0.5030     0.2930 c5         1 JAI      -0.052700
     17 C13         -0.5960     0.7970     1.1940 c          1 JAI       0.663100
     18 O14         -0.6720     0.6610     2.4100 o          1 JAI      -0.608100
     19 CG1         -5.4320     1.1520     0.2580 c3         1 JAI      -0.070400
     20 CG2         -3.9570    -0.1230    -1.3530 c3         1 JAI      -0.077100
     21 HN          -1.5260     0.9300    -0.5910 hn         1 JAI       0.287500
     22 HA          -3.2100     1.4150     1.6700 h1         1 JAI       0.053700
     23 HB          -3.6860     1.8950    -0.7000 hc         1 JAI       0.005700
     24 H01          5.4580     3.0830     1.8560 hc         1 JAI       0.029367
     25 H01A         6.5090     3.8350     0.6590 hc         1 JAI       0.029367
     26 H01B         4.9420     4.5530     1.0270 hc         1 JAI       0.029367
     27 H02          3.7780     2.5690     0.0540 hc         1 JAI       0.042700
     28 H02A         4.8150     3.3260    -1.1290 hc         1 JAI       0.042700
     29 H03          6.5350     1.5710    -0.8960 ha         1 JAI       0.108000
     30 H04          5.8180    -0.5850    -0.2820 ha         1 JAI       0.128000
     31 H05          4.0280    -0.8680     1.3640 hc         1 JAI       0.051200
     32 H05A         3.5340     0.7960     1.2040 hc         1 JAI       0.051200
     33 H06          2.7320     0.2140    -1.1740 hc         1 JAI       0.066700
     34 H09          1.3750    -2.9560    -2.0090 hc         1 JAI       0.070200
     35 H09A         1.4890    -3.3220    -0.2950 hc         1 JAI       0.070200
     36 H10          0.2880    -0.8250    -1.5610 hc         1 JAI       0.077200
     37 H10A        -0.3820    -1.7510    -0.2260 hc         1 JAI       0.077200
     38 H11          1.4050    -1.0010     1.2700 hc         1 JAI       0.078700
     39 H12          1.4040     1.5020     1.0980 hc         1 JAI       0.042700
     40 H12A         0.6470     1.3750    -0.4860 hc         1 JAI       0.042700
     41 HD1         -5.9930     2.7160    -1.1400 hc         1 JAI       0.016033
     42 HD1A        -6.4900     1.1060    -1.6500 hc         1 JAI       0.016033
     43 HD1B        -7.3600     1.9240    -0.3620 hc         1 JAI       0.016033
     44 HG1         -5.8380     0.2040     0.6160 hc         1 JAI       0.057700
     45 HG1A        -5.3990     1.8160     1.1270 hc         1 JAI       0.057700
     46 HG2         -4.5110     0.2020    -2.2340 hc         1 JAI       0.026367
     47 HG2A        -2.9390    -0.3400    -1.6820 hc         1 JAI       0.026367
     48 HG2B        -4.3940    -1.0630    -1.0150 hc         1 JAI       0.026367
     49 CD1         -6.3680     1.7550    -0.7820 c3         1 JAI      -0.086100
     50 C12          0.7410     0.8840     0.4880 c3         1 JAI      -0.153400
     51 O3           3.9410    -2.3890    -1.2250 o          1 JAI      -0.544100
@<TRIPOS>BOND
     1     1     3 1   
     2     1     4 1   
     3     1     5 1   
     4     2     5 1   
     5     2    17 1   
     6     2    21 1   
     7     5     6 1   
     8     5    22 1   
     9     6    19 1   
    10     6    20 1   
    11     6    23 1   
    12     7     8 1   
    13     7    24 1   
    14     7    25 1   
    15     7    26 1   
    16     8     9 1   
    17     8    27 1   
    18     8    28 1   
    19     9    10 2   
    20     9    29 1   
    21    10    11 1   
    22    10    30 1   
    23    11    12 1   
    24    11    31 1   
    25    11    32 1   
    26    12    13 1   
    27    12    16 1   
    28    12    33 1   
    29    13    14 1   
    30    13    51 2   
    31    14    15 1   
    32    14    34 1   
    33    14    35 1   
    34    15    16 1   
    35    15    36 1   
    36    15    37 1   
    37    16    38 1   
    38    16    50 1   
    39    17    18 2   
    40    17    50 1   
    41    19    44 1   
    42    19    45 1   
    43    19    49 1   
    44    20    46 1   
    45    20    47 1   
    46    20    48 1   
    47    39    50 1   
    48    40    50 1   
    49    41    49 1   
    50    42    49 1   
    51    43    49 1   
@<TRIPOS>SUBSTRUCTURE
     1 JAI         1 TEMP              0 ****  ****    0 ROOT
