@<TRIPOS>MOLECULE
JAJ
   67    70     1     0     0
SMALL
bcc


@<TRIPOS>ATOM
      1 N12          0.3120     0.1680     2.0690 n7         1 JAJ      -0.791100
      2 C13          0.1420    -0.9910     1.2060 c3         1 JAJ       0.204800
      3 C15          0.0070     0.2280    -1.0160 ca         1 JAJ       0.171100
      4 C17         -1.7350     1.8650    -1.1810 c3         1 JAJ       0.134400
      5 C24          1.5260    -0.2980    -2.8080 ca         1 JAJ      -0.091000
      6 C26          1.6850    -1.4640    -0.7300 ca         1 JAJ      -0.068000
      7 C02          5.2400     1.5940    -2.9490 c          1 JAJ       0.709700
      8 N03          5.4000     0.7590    -1.8680 ns         1 JAJ      -0.441100
      9 C04          4.6080     0.7330    -0.7570 ca         1 JAJ       0.139600
     10 C05          3.5280     1.6270    -0.6740 ca         1 JAJ      -0.158800
     11 C06          3.3150     2.5280    -1.7680 cc         1 JAJ      -0.000200
     12 C07          4.1200     2.5170    -2.8450 cd         1 JAJ      -0.273200
     13 C08          2.6970     1.5870     0.4420 ca         1 JAJ       0.042000
     14 C09          2.9300     0.6610     1.4380 ca         1 JAJ      -0.332500
     15 S10          1.7590     0.5160     2.7540 sy         1 JAJ       1.305200
     16 O11          1.5820     1.8180     3.3780 o          1 JAJ      -0.611800
     17 C14          0.6090    -0.7540    -0.2170 ca         1 JAJ      -0.165300
     18 O16         -0.9720     0.9350    -0.4270 os         1 JAJ      -0.319900
     19 C18         -2.6420     2.6230    -0.2360 c3         1 JAJ      -0.064400
     20 C19         -3.5850     3.5310    -1.0080 c3         1 JAJ      -0.205400
     21 O21         -5.3380     5.1040    -0.7830 o          1 JAJ      -0.844300
     22 O22         -4.4230     4.3190     1.0900 o          1 JAJ      -0.844300
     23 C23          0.4560     0.4390    -2.3170 ca         1 JAJ      -0.236000
     24 C25          2.1530    -1.2460    -2.0180 ca         1 JAJ      -0.187000
     25 C27         -1.3400    -1.4080     1.3040 c          1 JAJ       0.699100
     26 N28         -1.7020    -2.5770     0.7470 n          1 JAJ      -0.426800
     27 C29         -0.7830    -3.5970     0.2930 c3         1 JAJ      -0.062000
     28 C30         -0.0950    -4.3880     1.4300 c          1 JAJ       0.905600
     29 O31          0.6080    -5.3410     1.0460 o          1 JAJ      -0.827300
     30 O32         -0.2880    -3.9970     2.5930 o          1 JAJ      -0.827300
     31 C33         -3.0920    -2.9770     0.9140 c3         1 JAJ       0.170300
     32 C34         -3.9760    -2.4440    -0.1670 cc         1 JAJ      -0.076400
     33 C35         -4.6130    -3.1540    -1.1410 cd         1 JAJ      -0.179000
     34 C36         -5.3690    -2.3390    -2.0290 cd         1 JAJ      -0.176000
     35 C37         -5.2880    -1.0180    -1.7100 cc         1 JAJ      -0.157100
     36 S38         -4.2980    -0.7570    -0.3340 ss         1 JAJ       0.031200
     37 O39         -2.1490    -0.6780     1.8550 o          1 JAJ      -0.611100
     38 O40          2.1590    -0.6260     3.5590 o          1 JAJ      -0.611800
     39 C41          4.0130    -0.2150     1.3650 ca         1 JAJ       0.026000
     40 C42          4.8560    -0.1720     0.2780 ca         1 JAJ      -0.219000
     41 H121        -0.2290     0.9840     1.8090 hn         1 JAJ       0.462800
     42 H131         0.7350    -1.8030     1.6350 h1         1 JAJ       0.121700
     43 H172        -1.0760     2.5670    -1.7040 h1         1 JAJ       0.018700
     44 H171        -2.3180     1.3300    -1.9410 h1         1 JAJ       0.018700
     45 H241         1.8720    -0.1120    -3.8170 ha         1 JAJ       0.115000
     46 H261         2.1660    -2.2050    -0.1020 ha         1 JAJ       0.149000
     47 H031         6.1730     0.1080    -1.9170 hn         1 JAJ       0.320500
     48 H061         2.4820     3.2170    -1.7140 ha         1 JAJ       0.146000
     49 H071         3.9600     3.1920    -3.6740 ha         1 JAJ       0.152000
     50 H081         1.8540     2.2670     0.4890 ha         1 JAJ       0.154000
     51 H182        -3.2100     1.9130     0.3670 hc         1 JAJ       0.065200
     52 H181        -2.0310     3.2100     0.4540 hc         1 JAJ       0.065200
     53 H192        -4.1980     2.9330    -1.6920 hc         1 JAJ       0.012200
     54 H191        -3.0110     4.2050    -1.6560 hc         1 JAJ       0.012200
     55 H231        -0.0070     1.1780    -2.9570 ha         1 JAJ       0.133000
     56 H251         2.9970    -1.8080    -2.3930 ha         1 JAJ       0.123000
     57 H291        -1.3370    -4.2880    -0.3440 h1         1 JAJ       0.036700
     58 H292        -0.0250    -3.1690    -0.3620 h1         1 JAJ       0.036700
     59 H331        -3.1390    -4.0660     0.8830 h1         1 JAJ       0.064700
     60 H332        -3.4550    -2.6790     1.8980 h1         1 JAJ       0.064700
     61 H351        -4.5450    -4.2310    -1.2210 ha         1 JAJ       0.134000
     62 H361        -5.9380    -2.7200    -2.8640 ha         1 JAJ       0.125000
     63 H371        -5.7560    -0.1860    -2.2140 h4         1 JAJ       0.160000
     64 H411         4.1900    -0.9400     2.1460 ha         1 JAJ       0.167000
     65 H421         5.6940    -0.8540     0.2120 ha         1 JAJ       0.133000
     66 O01          6.0010     1.5380    -3.9040 o          1 JAJ      -0.651500
     67 C20         -4.5310     4.3920    -0.1490 c          1 JAJ       0.928600
@<TRIPOS>BOND
     1     1     2 1   
     2     1    15 1   
     3     1    41 1   
     4     2    17 1   
     5     2    25 1   
     6     2    42 1   
     7     3    17 ar  
     8     3    18 1   
     9     3    23 ar  
    10     4    18 1   
    11     4    19 1   
    12     4    43 1   
    13     4    44 1   
    14     5    23 ar  
    15     5    24 ar  
    16     5    45 1   
    17     6    17 ar  
    18     6    24 ar  
    19     6    46 1   
    20     7     8 1   
    21     7    12 1   
    22     7    66 2   
    23     8     9 1   
    24     8    47 1   
    25     9    10 ar  
    26     9    40 ar  
    27    10    11 1   
    28    10    13 ar  
    29    11    12 2   
    30    11    48 1   
    31    12    49 1   
    32    13    14 ar  
    33    13    50 1   
    34    14    15 1   
    35    14    39 ar  
    36    15    16 2   
    37    15    38 2   
    38    19    20 1   
    39    19    51 1   
    40    19    52 1   
    41    20    53 1   
    42    20    54 1   
    43    20    67 1   
    44    21    67 1   
    45    22    67 1   
    46    23    55 1   
    47    24    56 1   
    48    25    26 1   
    49    25    37 2   
    50    26    27 1   
    51    26    31 1   
    52    27    28 1   
    53    27    57 1   
    54    27    58 1   
    55    28    29 1   
    56    28    30 1   
    57    31    32 1   
    58    31    59 1   
    59    31    60 1   
    60    32    33 2   
    61    32    36 1   
    62    33    34 1   
    63    33    61 1   
    64    34    35 2   
    65    34    62 1   
    66    35    36 1   
    67    35    63 1   
    68    39    40 ar  
    69    39    64 1   
    70    40    65 1   
@<TRIPOS>SUBSTRUCTURE
     1 JAJ         1 TEMP              0 ****  ****    0 ROOT
