@<TRIPOS>MOLECULE
JAJ
   67    70     1     0     0
SMALL
No Charge or Current Charge


@<TRIPOS>ATOM
      1 N12          0.6580    -0.2440     2.1750 n7         1 JAJ      -0.846300
      2 C13          0.0780    -1.5210     1.6570 c3         1 JAJ       0.204800
      3 C15          0.3190    -0.8630    -0.8210 ca         1 JAJ       0.171100
      4 C17         -0.5400     1.3530    -1.4860 c3         1 JAJ       0.157600
      5 C24          1.5100    -2.3060    -2.3910 ca         1 JAJ      -0.073000
      6 C26          1.3390    -2.9380    -0.0500 ca         1 JAJ      -0.050000
      7 C02          3.1150     4.2730    -2.8550 c          1 JAJ       0.567200
      8 N03          3.4370     2.9640    -2.6310 ns         1 JAJ      -0.374100
      9 C04          3.2110     2.2420    -1.4540 ca         1 JAJ       0.139600
     10 C05          2.5990     2.8990    -0.3730 ca         1 JAJ      -0.158800
     11 C06          2.2090     4.3060    -0.4930 cc         1 JAJ      -0.050200
     12 C07          2.4720     4.9330    -1.7010 cd         1 JAJ      -0.323200
     13 C08          2.3510     2.1870     0.8150 ca         1 JAJ       0.060000
     14 C09          2.6990     0.8250     0.9080 ca         1 JAJ      -0.332500
     15 S10          2.3020    -0.0870     2.3930 sy         1 JAJ       1.163600
     16 O11          2.4540     0.7710     3.5690 o          1 JAJ      -0.541000
     17 C14          0.5860    -1.7770     0.2270 ca         1 JAJ      -0.165300
     18 O16         -0.3490     0.3080    -0.5210 os         1 JAJ      -0.343100
     19 C18         -1.2240     2.5290    -0.7650 c3         1 JAJ      -0.064400
     20 C19         -1.4580     3.7540    -1.6850 c3         1 JAJ      -0.205400
     21 O21         -3.3470     4.9160    -0.8430 o          1 JAJ      -0.739000
     22 O22         -1.4080     5.6810    -0.3000 o          1 JAJ      -0.739000
     23 C23          0.7780    -1.1380    -2.1280 ca         1 JAJ      -0.218000
     24 C25          1.7940    -3.2010    -1.3510 ca         1 JAJ      -0.169000
     25 C27         -1.5040    -1.5220     1.6710 c          1 JAJ       0.632100
     26 N28         -2.2010    -2.7190     1.3550 n          1 JAJ      -0.359800
     27 C29         -1.6260    -4.0690     1.6240 c3         1 JAJ      -0.062000
     28 C30         -1.6870    -4.5040     3.1090 c          1 JAJ       0.695000
     29 O31         -0.9200    -3.9670     3.8940 o          1 JAJ      -0.722000
     30 O32         -2.5250    -5.3300     3.4380 o          1 JAJ      -0.722000
     31 C33         -3.6410    -2.6750     1.0220 c3         1 JAJ       0.170300
     32 C34         -3.8240    -2.5020    -0.4620 cc         1 JAJ      -0.221300
     33 C35         -4.1430    -3.4600    -1.3920 cd         1 JAJ      -0.161000
     34 C36         -4.2190    -2.9590    -2.7180 cd         1 JAJ      -0.158000
     35 C37         -3.9560    -1.6170    -2.8100 cc         1 JAJ      -0.284000
     36 S38         -3.6000    -0.9280    -1.2270 ss         1 JAJ       0.321000
     37 O39         -2.1370    -0.4840     1.8660 o          1 JAJ      -0.611100
     38 O40          2.8820    -1.4310     2.3250 o          1 JAJ      -0.541000
     39 C41          3.3210     0.1770    -0.1780 ca         1 JAJ       0.044000
     40 C42          3.5770     0.8920    -1.3590 ca         1 JAJ      -0.201000
     41 H121         0.4950     0.4400     1.4370 hn         1 JAJ       0.518000
     42 H131         0.3790    -2.3530     2.3070 h1         1 JAJ       0.121700
     43 H172         0.4230     1.6850    -1.8930 h1         1 JAJ       0.018700
     44 H171        -1.1730     1.0070    -2.3140 h1         1 JAJ       0.018700
     45 H241         1.8640    -2.5120    -3.3990 ha         1 JAJ       0.097000
     46 H261         1.5790    -3.6410     0.7460 ha         1 JAJ       0.131000
     47 H031         3.8800     2.4740    -3.3960 hn         1 JAJ       0.320500
     48 H061         1.7220     4.8460     0.3170 ha         1 JAJ       0.196000
     49 H071         2.2080     5.9700    -1.8690 ha         1 JAJ       0.202000
     50 H081         1.8720     2.6920     1.6540 ha         1 JAJ       0.136000
     51 H182        -2.1850     2.1890    -0.3590 hc         1 JAJ       0.065200
     52 H181        -0.6050     2.8330     0.0870 hc         1 JAJ       0.065200
     53 H192        -2.1170     3.4030    -2.4890 hc         1 JAJ       0.012200
     54 H191        -0.4640     4.0600    -2.0330 hc         1 JAJ       0.012200
     55 H231         0.5860    -0.4540    -2.9490 ha         1 JAJ       0.115000
     56 H251         2.3710    -4.1010    -1.5520 ha         1 JAJ       0.105000
     57 H291        -2.1720    -4.8120     1.0290 h1         1 JAJ       0.036700
     58 H292        -0.5840    -4.1150     1.2970 h1         1 JAJ       0.036700
     59 H331        -4.1230    -3.6090     1.3400 h1         1 JAJ       0.064700
     60 H332        -4.1410    -1.8580     1.5580 h1         1 JAJ       0.064700
     61 H351        -4.3170    -4.5020    -1.1380 ha         1 JAJ       0.116000
     62 H361        -4.4590    -3.5800    -3.5760 ha         1 JAJ       0.107000
     63 H371        -3.9400    -0.9780    -3.6840 h4         1 JAJ       0.142000
     64 H411         3.5900    -0.8770    -0.1230 ha         1 JAJ       0.149000
     65 H421         4.0450     0.3900    -2.2010 ha         1 JAJ       0.115000
     66 O01          3.3450     4.8300    -3.9160 o          1 JAJ      -0.576000
     67 C20         -2.1270     4.8900    -0.8910 c          1 JAJ       0.718000
@<TRIPOS>BOND
     1     1     2 1   
     2     1    15 1   
     3     1    41 1   
     4     2    17 1   
     5     2    25 1   
     6     2    42 1   
     7     3    17 ar  
     8     3    18 1   
     9     3    23 ar  
    10     4    18 1   
    11     4    19 1   
    12     4    43 1   
    13     4    44 1   
    14     5    23 ar  
    15     5    24 ar  
    16     5    45 1   
    17     6    17 ar  
    18     6    24 ar  
    19     6    46 1   
    20     7     8 1   
    21     7    12 1   
    22     7    66 2   
    23     8     9 1   
    24     8    47 1   
    25     9    10 ar  
    26     9    40 ar  
    27    10    11 1   
    28    10    13 ar  
    29    11    12 2   
    30    11    48 1   
    31    12    49 1   
    32    13    14 ar  
    33    13    50 1   
    34    14    15 1   
    35    14    39 ar  
    36    15    16 2   
    37    15    38 2   
    38    19    20 1   
    39    19    51 1   
    40    19    52 1   
    41    20    53 1   
    42    20    54 1   
    43    20    67 1   
    44    21    67 1   
    45    22    67 1   
    46    23    55 1   
    47    24    56 1   
    48    25    26 1   
    49    25    37 2   
    50    26    27 1   
    51    26    31 1   
    52    27    28 1   
    53    27    57 1   
    54    27    58 1   
    55    28    29 1   
    56    28    30 1   
    57    31    32 1   
    58    31    59 1   
    59    31    60 1   
    60    32    33 2   
    61    32    36 1   
    62    33    34 1   
    63    33    61 1   
    64    34    35 2   
    65    34    62 1   
    66    35    36 1   
    67    35    63 1   
    68    39    40 ar  
    69    39    64 1   
    70    40    65 1   
@<TRIPOS>SUBSTRUCTURE
     1 JAJ         1 TEMP              0 ****  ****    0 ROOT
