@<TRIPOS>MOLECULE
JAK
   36    39     1     0     0
SMALL
No Charge or Current Charge


@<TRIPOS>ATOM
      1 C1           1.0270     3.6680     0.0230 c3         1 JAK      -0.109400
      2 C2           0.0240     2.5490     0.0210 cc         1 JAK       0.399800
      3 N3          -1.3070     2.7410     0.0280 nd         1 JAK      -0.554100
      4 C4          -1.8350     1.4470     0.0230 ca         1 JAK      -0.022600
      5 C5          -3.1980     1.0570     0.0270 ca         1 JAK       0.422900
      6 N6          -3.5790    -0.2510     0.0210 nb         1 JAK      -0.695000
      7 C7          -2.5970    -1.1800     0.0120 ca         1 JAK       0.355500
      8 C8          -1.2440    -0.8680     0.0080 ca         1 JAK      -0.129800
      9 C9          -0.8510     0.4900     0.0130 ca         1 JAK      -0.005200
     10 N10          0.3450     1.1840     0.0120 na         1 JAK      -0.166600
     11 C11          1.7130     0.6030     0.0030 c6         1 JAK       0.095300
     12 C12          2.0270    -0.1870     1.3030 c6         1 JAK      -0.093400
     13 C13          3.4050    -0.8820     1.2190 c6         1 JAK       0.158800
     14 N14          3.5250    -1.6880    -0.0180 n7         1 JAK      -0.863400
     15 C15          3.3940    -0.8680    -1.2440 c6         1 JAK       0.158800
     16 C16          2.0160    -0.1730    -1.3080 c6         1 JAK      -0.093400
     17 C17         -0.5210    -2.1160    -0.0020 cc         1 JAK      -0.230200
     18 C18         -1.4590    -3.1330    -0.0040 cd         1 JAK      -0.174100
     19 N19         -2.7480    -2.5530     0.0050 na         1 JAK      -0.308400
     20 H1           1.6620     3.6210    -0.8680 hc         1 JAK       0.056033
     21 H1A          0.5290     4.6440     0.0310 hc         1 JAK       0.056033
     22 H1B          1.6700     3.6110     0.9090 hc         1 JAK       0.056033
     23 H5          -3.9930     1.8010     0.0340 h4         1 JAK       0.033100
     24 H11          2.4220     1.4430     0.0050 h1         1 JAK       0.056700
     25 H12          2.0250     0.5030     2.1570 hc         1 JAK       0.064700
     26 H12A         1.2550    -0.9270     1.5300 hc         1 JAK       0.064700
     27 H13          4.2010    -0.1220     1.2370 h1         1 JAK       0.033200
     28 H13A         3.5440    -1.5290     2.0970 h1         1 JAK       0.033200
     29 HN14         4.4490    -2.1400    -0.0240 hn         1 JAK       0.415000
     30 H15          4.1900    -0.1080    -1.2610 h1         1 JAK       0.033200
     31 H15A         3.5250    -1.5060    -2.1310 h1         1 JAK       0.033200
     32 H16          1.2410    -0.9100    -1.5360 hc         1 JAK       0.064700
     33 H16A         2.0060     0.5270    -2.1540 hc         1 JAK       0.064700
     34 H17          0.5530    -2.2840    -0.0080 ha         1 JAK       0.218000
     35 H18         -1.3070    -4.2110    -0.0100 h4         1 JAK       0.214000
     36 H171        -3.6370    -3.0390     0.0060 hn         1 JAK       0.359000
@<TRIPOS>BOND
     1     1     2 1   
     2     1    20 1   
     3     1    21 1   
     4     1    22 1   
     5     2     3 2   
     6     2    10 1   
     7     3     4 1   
     8     4     5 ar  
     9     4     9 ar  
    10     5     6 ar  
    11     5    23 1   
    12     6     7 ar  
    13     7     8 ar  
    14     7    19 1   
    15     8     9 ar  
    16     8    17 1   
    17     9    10 1   
    18    10    11 1   
    19    11    12 1   
    20    11    16 1   
    21    11    24 1   
    22    12    13 1   
    23    12    25 1   
    24    12    26 1   
    25    13    14 1   
    26    13    27 1   
    27    13    28 1   
    28    14    15 1   
    29    14    29 1   
    30    15    16 1   
    31    15    30 1   
    32    15    31 1   
    33    16    32 1   
    34    16    33 1   
    35    17    18 2   
    36    17    34 1   
    37    18    19 1   
    38    18    35 1   
    39    19    36 1   
@<TRIPOS>SUBSTRUCTURE
     1 JAK         1 TEMP              0 ****  ****    0 ROOT
