@<TRIPOS>MOLECULE
JAK
   36    39     1     0     0
SMALL
bcc


@<TRIPOS>ATOM
      1 C1           1.0350     3.5800     0.0240 c3         1 JAK      -0.109400
      2 C2           0.0290     2.4870     0.0210 cc         1 JAK       0.399800
      3 N3          -1.2600     2.6710     0.0290 nd         1 JAK      -0.554100
      4 C4          -1.8060     1.4110     0.0230 ca         1 JAK      -0.087900
      5 C5          -3.1540     1.0340     0.0270 ca         1 JAK       0.488200
      6 N6          -3.5240    -0.2310     0.0210 nb         1 JAK      -0.695000
      7 C7          -2.5430    -1.1340     0.0110 ca         1 JAK       0.420800
      8 C8          -1.1440    -0.9150     0.0050 ca         1 JAK      -0.195100
      9 C9          -0.7920     0.4440     0.0120 ca         1 JAK      -0.005200
     10 N10          0.3770     1.1580     0.0110 na         1 JAK      -0.137300
     11 C11          1.7330     0.6290     0.0020 c6         1 JAK       0.066000
     12 C12          2.0250    -0.1690     1.2710 c6         1 JAK      -0.093400
     13 C13          3.4020    -0.8100     1.1850 c6         1 JAK       0.158800
     14 N14          3.4910    -1.6190    -0.0160 n7         1 JAK      -0.808200
     15 C15          3.3920    -0.7990    -1.2090 c6         1 JAK       0.158800
     16 C16          2.0140    -0.1570    -1.2770 c6         1 JAK      -0.093400
     17 C17         -0.5270    -2.2040    -0.0040 cc         1 JAK      -0.180200
     18 C18         -1.5420    -3.1210    -0.0040 cd         1 JAK      -0.124100
     19 N19         -2.7430    -2.4820     0.0050 na         1 JAK      -0.258100
     20 H1           1.6710     3.5490    -0.8620 hc         1 JAK       0.056033
     21 H1A          0.5200     4.5370     0.0350 hc         1 JAK       0.056033
     22 H1B          1.6830     3.5330     0.9000 hc         1 JAK       0.056033
     23 H5          -3.9340     1.7880     0.0350 h4         1 JAK       0.033100
     24 H11          2.4020     1.4920     0.0030 h1         1 JAK       0.056700
     25 H12          1.9730     0.4950     2.1370 hc         1 JAK       0.064700
     26 H12A         1.2760    -0.9490     1.4180 hc         1 JAK       0.064700
     27 H13          4.1700    -0.0180     1.2180 h1         1 JAK       0.033200
     28 H13A         3.5640    -1.4440     2.0580 h1         1 JAK       0.033200
     29 HN14         4.3690    -2.1210    -0.0220 hn         1 JAK       0.359800
     30 H15          4.1600    -0.0080    -1.2410 h1         1 JAK       0.033200
     31 H15A         3.5460    -1.4260    -2.0890 h1         1 JAK       0.033200
     32 H16          1.2640    -0.9340    -1.4260 hc         1 JAK       0.064700
     33 H16A         1.9560     0.5160    -2.1360 hc         1 JAK       0.064700
     34 H17          0.5240    -2.4400    -0.0100 ha         1 JAK       0.168000
     35 H18         -1.4900    -4.1970    -0.0090 h4         1 JAK       0.164000
     36 H171        -3.6450    -2.9310     0.0070 hn         1 JAK       0.308700
@<TRIPOS>BOND
     1     1     2 1   
     2     1    20 1   
     3     1    21 1   
     4     1    22 1   
     5     2     3 2   
     6     2    10 1   
     7     3     4 1   
     8     4     5 ar  
     9     4     9 ar  
    10     5     6 ar  
    11     5    23 1   
    12     6     7 ar  
    13     7     8 ar  
    14     7    19 1   
    15     8     9 ar  
    16     8    17 1   
    17     9    10 1   
    18    10    11 1   
    19    11    12 1   
    20    11    16 1   
    21    11    24 1   
    22    12    13 1   
    23    12    25 1   
    24    12    26 1   
    25    13    14 1   
    26    13    27 1   
    27    13    28 1   
    28    14    15 1   
    29    14    29 1   
    30    15    16 1   
    31    15    30 1   
    32    15    31 1   
    33    16    32 1   
    34    16    33 1   
    35    17    18 2   
    36    17    34 1   
    37    18    19 1   
    38    18    35 1   
    39    19    36 1   
@<TRIPOS>SUBSTRUCTURE
     1 JAK         1 TEMP              0 ****  ****    0 ROOT
