@<TRIPOS>MOLECULE
JAL
   27    28     1     0     0
SMALL
bcc


@<TRIPOS>ATOM
      1 CAA        -21.2190     1.3770    -8.2780 ca         1 JAL      -0.077500
      2 CAB        -21.5730     0.2790    -7.5030 ca         1 JAL      -0.147300
      3 CAC        -21.6620     1.4960    -9.5850 ca         1 JAL      -0.009600
      4 CAD        -22.3980    -0.7030    -8.0660 ca         1 JAL       0.146600
      5 CAE        -22.4710     0.5210   -10.1450 ca         1 JAL      -0.078500
      6 CAF        -22.8360    -0.5750    -9.3810 ca         1 JAL      -0.188500
      7 CAG        -21.0670     0.1480    -6.0930 c3         1 JAL       0.019200
      8 CAH        -22.1340     0.2980    -5.0280 ca         1 JAL      -0.147300
      9 CAI        -23.3130     0.9910    -5.2730 ca         1 JAL      -0.077500
     10 CAJ        -21.9270    -0.2350    -3.7480 ca         1 JAL       0.146600
     11 CAK        -24.2650     1.1440    -4.2780 ca         1 JAL      -0.009600
     12 CAL        -22.8930    -0.0830    -2.7600 ca         1 JAL      -0.188500
     13 CAM        -24.0660     0.6080    -3.0180 ca         1 JAL      -0.078500
     14 OAN        -22.8000    -1.7990    -7.3940 oh         1 JAL      -0.495600
     15 OAO        -20.7700    -0.8880    -3.5280 oh         1 JAL      -0.495600
     16 CLP        -25.7260     2.0180    -4.6190 cl         1 JAL      -0.108400
     17 CLQ        -21.1970     2.8780   -10.5260 cl         1 JAL      -0.108400
     18 H1         -20.5830     2.1410    -7.8480 ha         1 JAL       0.152500
     19 H2         -22.8190     0.6080   -11.1650 ha         1 JAL       0.149500
     20 H3         -23.4690    -1.3420    -9.8090 ha         1 JAL       0.144500
     21 H4         -20.5610    -0.8150    -5.9740 hc         1 JAL       0.068200
     22 H5         -20.2900     0.8970    -5.9240 hc         1 JAL       0.068200
     23 H6         -23.4880     1.4170    -6.2520 ha         1 JAL       0.152500
     24 H7         -22.7310    -0.5030    -1.7730 ha         1 JAL       0.144500
     25 H8         -24.8090     0.7230    -2.2410 ha         1 JAL       0.149500
     26 H9         -22.5010    -1.7860    -6.4790 ho         1 JAL       0.434000
     27 H10        -20.7380    -1.2300    -2.6270 ho         1 JAL       0.434000
@<TRIPOS>BOND
     1     1     2 ar  
     2     1     3 ar  
     3     1    18 1   
     4     2     4 ar  
     5     2     7 1   
     6     3     5 ar  
     7     3    17 1   
     8     4     6 ar  
     9     4    14 1   
    10     5     6 ar  
    11     5    19 1   
    12     6    20 1   
    13     7     8 1   
    14     7    21 1   
    15     7    22 1   
    16     8     9 ar  
    17     8    10 ar  
    18     9    11 ar  
    19     9    23 1   
    20    10    12 ar  
    21    10    15 1   
    22    11    13 ar  
    23    11    16 1   
    24    12    13 ar  
    25    12    24 1   
    26    13    25 1   
    27    14    26 1   
    28    15    27 1   
@<TRIPOS>SUBSTRUCTURE
     1 JAL         1 TEMP              0 ****  ****    0 ROOT
