@<TRIPOS>MOLECULE
JAL
   27    28     1     0     0
SMALL
No Charge or Current Charge


@<TRIPOS>ATOM
      1 CAA        -21.6810     1.4290    -8.3570 ca         1 JAL      -0.059500
      2 CAB        -21.5040     0.3610    -7.4500 ca         1 JAL      -0.147300
      3 CAC        -22.1590     1.1890    -9.6560 ca         1 JAL       0.082000
      4 CAD        -21.8210    -0.9520    -7.8680 ca         1 JAL       0.146600
      5 CAE        -22.4640    -0.1180   -10.0660 ca         1 JAL      -0.060500
      6 CAF        -22.2930    -1.1870    -9.1690 ca         1 JAL      -0.170500
      7 CAG        -20.9690     0.6540    -6.0490 c3         1 JAL       0.019200
      8 CAH        -22.0890     0.6540    -5.0090 ca         1 JAL      -0.147300
      9 CAI        -22.9170     1.7900    -4.8990 ca         1 JAL      -0.059500
     10 CAJ        -22.3180    -0.4480    -4.1550 ca         1 JAL       0.146600
     11 CAK        -23.9530     1.8280    -3.9510 ca         1 JAL       0.082000
     12 CAL        -23.3530    -0.4060    -3.2060 ca         1 JAL      -0.170500
     13 CAM        -24.1720     0.7320    -3.1020 ca         1 JAL      -0.060500
     14 OAN        -21.6810    -2.0130    -7.0250 oh         1 JAL      -0.534600
     15 OAO        -21.5440    -1.5680    -4.2490 oh         1 JAL      -0.534600
     16 ClP        -24.9770     3.2530    -3.8270 cl         1 JAL      -0.200000
     17 ClQ        -22.3740     2.5310   -10.7730 cl         1 JAL      -0.200000
     18 H1         -21.4470     2.4480    -8.0580 ha         1 JAL       0.134500
     19 H2         -22.8320    -0.3010   -11.0720 ha         1 JAL       0.131500
     20 H3         -22.5320    -2.1990    -9.4840 ha         1 JAL       0.126500
     21 H4         -20.1740    -0.0540    -5.7890 hc         1 JAL       0.068200
     22 H5         -20.4700     1.6310    -6.0370 hc         1 JAL       0.068200
     23 H6         -22.7590     2.6470    -5.5490 ha         1 JAL       0.134500
     24 H7         -23.5340    -1.2540    -2.5480 ha         1 JAL       0.126500
     25 H8         -24.9750     0.7640    -2.3700 ha         1 JAL       0.131500
     26 H9         -21.5600    -1.6700    -6.1060 ho         1 JAL       0.473000
     27 H10        -21.7570    -2.1580    -3.4920 ho         1 JAL       0.473000
@<TRIPOS>BOND
     1     1     2 ar  
     2     1     3 ar  
     3     1    18 1   
     4     2     4 ar  
     5     2     7 1   
     6     3     5 ar  
     7     3    17 1   
     8     4     6 ar  
     9     4    14 1   
    10     5     6 ar  
    11     5    19 1   
    12     6    20 1   
    13     7     8 1   
    14     7    21 1   
    15     7    22 1   
    16     8     9 ar  
    17     8    10 ar  
    18     9    11 ar  
    19     9    23 1   
    20    10    12 ar  
    21    10    15 1   
    22    11    13 ar  
    23    11    16 1   
    24    12    13 ar  
    25    12    24 1   
    26    13    25 1   
    27    14    26 1   
    28    15    27 1   
@<TRIPOS>SUBSTRUCTURE
     1 JAL         1 TEMP              0 ****  ****    0 ROOT
