@<TRIPOS>MOLECULE
JAN
   56    60     1     0     0
SMALL
abcg2


@<TRIPOS>ATOM
      1 C1           2.9110    -3.0840     0.9260 c3         1 JAN       0.054900
      2 N1           2.7860    -2.3160     2.1460 na         1 JAN      -0.158500
      3 C2           3.6580    -2.3750     3.1750 cc         1 JAN       0.389400
      4 N2           3.3080    -1.6010     4.1670 nd         1 JAN      -0.670000
      5 C3           2.1470    -1.0100     3.7630 cd         1 JAN       0.245900
      6 C4           1.7930    -1.4390     2.5120 cc         1 JAN      -0.193300
      7 C5           0.6380    -1.0400     1.6240 c3         1 JAN       0.373100
      8 C6          -0.2920    -0.1490     2.4540 ca         1 JAN      -0.090300
      9 C7          -1.0540    -0.7370     3.4640 ca         1 JAN      -0.081000
     10 C8          -1.9040     0.0160     4.2560 ca         1 JAN      -0.111000
     11 C9          -1.9990     1.3820     4.0350 ca         1 JAN       0.127000
     12 CL1         -3.0590     2.3370     5.0200 cl         1 JAN      -0.202000
     13 C10         -1.2590     1.9920     3.0380 ca         1 JAN      -0.111000
     14 C11         -0.4090     1.2200     2.2540 ca         1 JAN      -0.081000
     15 N3          -0.1340    -2.2320     1.2760 n8         1 JAN      -1.001200
     16 C12          1.1700    -0.2750     0.4060 ca         1 JAN      -0.159300
     17 C13          0.5090    -0.3260    -0.8020 ca         1 JAN      -0.057000
     18 C14          0.9360     0.4030    -1.9190 ca         1 JAN      -0.124800
     19 C15          2.3110     0.5280     0.4870 ca         1 JAN      -0.044000
     20 C16          2.7750     1.2380    -0.6000 ca         1 JAN      -0.168000
     21 C17          2.1010     1.1870    -1.8270 ca         1 JAN       0.106600
     22 N4           2.5700     1.8790    -2.9250 n          1 JAN      -0.278000
     23 C18          3.7590     2.7060    -2.7810 c3         1 JAN       0.067300
     24 C19          1.9680     1.8070    -4.1650 c          1 JAN       0.562200
     25 O1           2.4250     2.3910    -5.1400 o          1 JAN      -0.544000
     26 C20          0.7520     1.0220    -4.2370 cc         1 JAN      -0.281200
     27 C21          0.2370     0.3630    -3.1800 cd         1 JAN       0.067600
     28 C22         -1.0320    -0.3830    -3.3260 ca         1 JAN      -0.061800
     29 C23         -2.1350    -0.0420    -2.5450 ca         1 JAN      -0.092000
     30 C24         -3.3250    -0.7300    -2.7130 ca         1 JAN       0.115000
     31 CL2         -4.6920    -0.2970    -1.7410 cl         1 JAN      -0.192000
     32 C25         -3.4450    -1.7530    -3.6420 ca         1 JAN      -0.094000
     33 C26         -2.3440    -2.0840    -4.4160 ca         1 JAN      -0.102000
     34 C27         -1.1430    -1.4040    -4.2640 ca         1 JAN      -0.093000
     35 H11A         2.1980    -3.9070     0.9000 h1         1 JAN       0.053700
     36 H12          2.7660    -2.4530     0.0520 h1         1 JAN       0.053700
     37 H13A         3.9130    -3.5010     0.8790 h1         1 JAN       0.053700
     38 H2           4.5330    -3.0080     3.1410 h5         1 JAN       0.052100
     39 H3           1.6250    -0.3000     4.3860 h4         1 JAN       0.044100
     40 H7          -0.9830    -1.8010     3.6410 ha         1 JAN       0.131000
     41 H8          -2.4840    -0.4580     5.0350 ha         1 JAN       0.131000
     42 H10         -1.3380     3.0560     2.8630 ha         1 JAN       0.131000
     43 H11          0.1540     1.7180     1.4770 ha         1 JAN       0.131000
     44 HN31        -1.0360    -1.9700     0.8960 hn         1 JAN       0.406500
     45 HN32         0.3290    -2.7740     0.5560 hn         1 JAN       0.406500
     46 H13         -0.3620    -0.9580    -0.9070 ha         1 JAN       0.118000
     47 H15          2.8560     0.6030     1.4190 ha         1 JAN       0.135000
     48 H16          3.6700     1.8290    -0.4810 ha         1 JAN       0.127000
     49 H181         3.9450     3.2250    -3.7120 h1         1 JAN       0.057700
     50 H182         3.6140     3.4430    -1.9930 h1         1 JAN       0.057700
     51 H183         4.6290     2.0960    -2.5400 h1         1 JAN       0.057700
     52 H20          0.2500     1.0130    -5.1960 ha         1 JAN       0.215000
     53 H23         -2.0670     0.7620    -1.8230 ha         1 JAN       0.138000
     54 H25         -4.3810    -2.2840    -3.7580 ha         1 JAN       0.133000
     55 H26         -2.4230    -2.8810    -5.1420 ha         1 JAN       0.123000
     56 H27         -0.2880    -1.6750    -4.8690 ha         1 JAN       0.125000
@<TRIPOS>BOND
     1     1     2 1   
     2     1    35 1   
     3     1    36 1   
     4     1    37 1   
     5     2     3 1   
     6     2     6 1   
     7     3     4 2   
     8     3    38 1   
     9     4     5 1   
    10     5     6 2   
    11     5    39 1   
    12     6     7 1   
    13     7     8 1   
    14     7    15 1   
    15     7    16 1   
    16     8     9 ar  
    17     8    14 ar  
    18     9    10 ar  
    19     9    40 1   
    20    10    11 ar  
    21    10    41 1   
    22    11    12 1   
    23    11    13 ar  
    24    13    14 ar  
    25    13    42 1   
    26    14    43 1   
    27    15    44 1   
    28    15    45 1   
    29    16    17 ar  
    30    16    19 ar  
    31    17    18 ar  
    32    17    46 1   
    33    18    21 ar  
    34    18    27 1   
    35    19    20 ar  
    36    19    47 1   
    37    20    21 ar  
    38    20    48 1   
    39    21    22 1   
    40    22    23 1   
    41    22    24 1   
    42    23    49 1   
    43    23    50 1   
    44    23    51 1   
    45    24    25 2   
    46    24    26 1   
    47    26    27 2   
    48    26    52 1   
    49    27    28 1   
    50    28    29 ar  
    51    28    34 ar  
    52    29    30 ar  
    53    29    53 1   
    54    30    31 1   
    55    30    32 ar  
    56    32    33 ar  
    57    32    54 1   
    58    33    34 ar  
    59    33    55 1   
    60    34    56 1   
@<TRIPOS>SUBSTRUCTURE
     1 JAN         1 TEMP              0 ****  ****    0 ROOT
