@<TRIPOS>MOLECULE
JAN
   56    60     1     0     0
SMALL
No Charge or Current Charge


@<TRIPOS>ATOM
      1 C1           3.7910    -2.8570     1.8420 c3         1 JAN       0.054900
      2 N1           3.1980    -1.9400     2.8330 na         1 JAN      -0.158500
      3 C2           3.7680    -1.6280     4.0490 cc         1 JAN       0.389400
      4 N2           3.0280    -0.7550     4.7150 nd         1 JAN      -0.670000
      5 C3           1.9400    -0.5020     3.9060 cd         1 JAN       0.245900
      6 C4           2.0050    -1.2230     2.7370 cc         1 JAN      -0.193300
      7 C5           1.0020    -1.2140     1.5930 c3         1 JAN       0.373100
      8 C6          -0.3340    -0.5990     2.0790 ca         1 JAN      -0.090300
      9 C7          -1.3300    -1.3950     2.6960 ca         1 JAN      -0.081000
     10 C8          -2.5390    -0.8250     3.1330 ca         1 JAN      -0.111000
     11 C9          -2.7670     0.5490     2.9730 ca         1 JAN       0.127000
     12 Cl1         -4.2790     1.2600     3.5210 cl         1 JAN      -0.202000
     13 C10         -1.7830     1.3580     2.3880 ca         1 JAN      -0.111000
     14 C11         -0.5730     0.7920     1.9510 ca         1 JAN      -0.081000
     15 N3           0.7760    -2.5980     1.1780 n8         1 JAN      -1.001200
     16 C12          1.4920    -0.4630     0.3370 ca         1 JAN      -0.159300
     17 C13          0.6300    -0.3550    -0.7740 ca         1 JAN      -0.057000
     18 C14          0.9860     0.3740    -1.9330 ca         1 JAN      -0.124800
     19 C15          2.7600     0.1440     0.2550 ca         1 JAN      -0.044000
     20 C16          3.1580     0.8000    -0.9190 ca         1 JAN      -0.168000
     21 C17          2.2750     0.9470    -2.0130 ca         1 JAN       0.106600
     22 N4           2.7250     1.5240    -3.2580 n          1 JAN      -0.278000
     23 C18          4.0150     2.2620    -3.2950 c3         1 JAN       0.067300
     24 C19          1.9540     1.4690    -4.4420 c          1 JAN       0.562200
     25 O1           2.3620     1.8750    -5.5220 o          1 JAN      -0.544000
     26 C20          0.5990     0.9300    -4.2920 cc         1 JAN      -0.281200
     27 C21          0.0780     0.4860    -3.0980 cd         1 JAN       0.067600
     28 C22         -1.3480     0.0730    -3.0250 ca         1 JAN      -0.061800
     29 C23         -2.1340     0.3650    -1.8860 ca         1 JAN      -0.092000
     30 C24         -3.4870    -0.0020    -1.8290 ca         1 JAN       0.115000
     31 Cl2         -4.4310     0.3610    -0.3890 cl         1 JAN      -0.192000
     32 C25         -4.0900    -0.6470    -2.9180 ca         1 JAN      -0.094000
     33 C26         -3.3360    -0.9130    -4.0720 ca         1 JAN      -0.102000
     34 C27         -1.9790    -0.5480    -4.1290 ca         1 JAN      -0.093000
     35 H11A         3.2960    -3.8340     1.9010 h1         1 JAN       0.053700
     36 H12          3.6780    -2.4470     0.8310 h1         1 JAN       0.053700
     37 H13A         4.8600    -2.9870     2.0510 h1         1 JAN       0.053700
     38 H2           4.7080    -2.0560     4.3770 h5         1 JAN       0.052100
     39 H3           1.1650     0.1890     4.2160 h4         1 JAN       0.044100
     40 H7          -1.1730    -2.4610     2.8440 ha         1 JAN       0.131000
     41 H8          -3.2970    -1.4490     3.5990 ha         1 JAN       0.131000
     42 H10         -1.9570     2.4250     2.2750 ha         1 JAN       0.131000
     43 H11          0.1790     1.4440     1.5120 ha         1 JAN       0.131000
     44 HN31         0.1220    -2.5810     0.3940 hn         1 JAN       0.406500
     45 HN32         1.6440    -2.9340     0.7620 hn         1 JAN       0.406500
     46 H13         -0.3220    -0.8710    -0.7250 ha         1 JAN       0.118000
     47 H15          3.4640     0.0980     1.0820 ha         1 JAN       0.135000
     48 H16          4.1680     1.1970    -0.9540 ha         1 JAN       0.127000
     49 H181         4.1010     2.8870    -4.1920 h1         1 JAN       0.057700
     50 H182         4.0900     2.9250    -2.4230 h1         1 JAN       0.057700
     51 H183         4.8480     1.5480    -3.2810 h1         1 JAN       0.057700
     52 H20          0.0040     0.9880    -5.1930 ha         1 JAN       0.215000
     53 H23         -1.7070     0.9060    -1.0450 ha         1 JAN       0.138000
     54 H25         -5.1390    -0.9290    -2.8720 ha         1 JAN       0.133000
     55 H26         -3.8010    -1.4070    -4.9230 ha         1 JAN       0.123000
     56 H27         -1.4130    -0.7830    -5.0270 ha         1 JAN       0.125000
@<TRIPOS>BOND
     1     1     2 1   
     2     1    35 1   
     3     1    36 1   
     4     1    37 1   
     5     2     3 1   
     6     2     6 1   
     7     3     4 2   
     8     3    38 1   
     9     4     5 1   
    10     5     6 2   
    11     5    39 1   
    12     6     7 1   
    13     7     8 1   
    14     7    15 1   
    15     7    16 1   
    16     8     9 ar  
    17     8    14 ar  
    18     9    10 ar  
    19     9    40 1   
    20    10    11 ar  
    21    10    41 1   
    22    11    12 1   
    23    11    13 ar  
    24    13    14 ar  
    25    13    42 1   
    26    14    43 1   
    27    15    44 1   
    28    15    45 1   
    29    16    17 ar  
    30    16    19 ar  
    31    17    18 ar  
    32    17    46 1   
    33    18    21 ar  
    34    18    27 1   
    35    19    20 ar  
    36    19    47 1   
    37    20    21 ar  
    38    20    48 1   
    39    21    22 1   
    40    22    23 1   
    41    22    24 1   
    42    23    49 1   
    43    23    50 1   
    44    23    51 1   
    45    24    25 2   
    46    24    26 1   
    47    26    27 2   
    48    26    52 1   
    49    27    28 1   
    50    28    29 ar  
    51    28    34 ar  
    52    29    30 ar  
    53    29    53 1   
    54    30    31 1   
    55    30    32 ar  
    56    32    33 ar  
    57    32    54 1   
    58    33    34 ar  
    59    33    55 1   
    60    34    56 1   
@<TRIPOS>SUBSTRUCTURE
     1 JAN         1 TEMP              0 ****  ****    0 ROOT
