@<TRIPOS>MOLECULE
JAO
   57    56     1     0     0
SMALL
abcg2


@<TRIPOS>ATOM
      1 CAB          8.0870     1.4700    -0.2340 c3         1 JAO      -0.082100
      2 CAE          8.9250    -0.9040    -0.1410 c3         1 JAO       0.164600
      3 CAF        -11.3000    -0.3760    -0.0030 c3         1 JAO      -0.088100
      4 CAG        -10.0360     0.4560     0.1640 c3         1 JAO      -0.074400
      5 CAH         -8.7620    -0.3620    -0.0120 c3         1 JAO      -0.075400
      6 CAI         -7.4890     0.4580     0.1480 c3         1 JAO      -0.074400
      7 CAJ         -6.2180    -0.3620    -0.0340 c3         1 JAO      -0.074400
      8 CAK         -4.9430     0.4580     0.1180 c3         1 JAO      -0.074400
      9 CAL         -3.6740    -0.3640    -0.0720 c3         1 JAO      -0.074400
     10 CAM         -2.3970     0.4530     0.0780 c3         1 JAO      -0.074400
     11 CAN         -1.1310    -0.3710    -0.1190 c3         1 JAO      -0.074400
     12 CAO          0.1500     0.4390     0.0370 c3         1 JAO      -0.074400
     13 CAP          1.4110    -0.3900    -0.1720 c3         1 JAO      -0.074400
     14 CAQ          2.6980     0.4060     0.0070 c3         1 JAO      -0.074400
     15 CAR          3.9510    -0.4270    -0.2300 c3         1 JAO      -0.076400
     16 CAS          5.2480     0.3320     0.0260 c3         1 JAO      -0.072400
     17 CAT          6.4820    -0.4950    -0.3230 c3         1 JAO      -0.074400
     18 CAU          7.7980     0.0480     0.2340 c3         1 JAO      -0.061700
     19 O3          10.1270    -0.4950     0.4760 oh         1 JAO      -0.661000
     20 H1           9.0270     1.8430     0.1710 hc         1 JAO       0.035700
     21 H2           8.1510     1.5160    -1.3250 hc         1 JAO       0.035700
     22 H3           7.3020     2.1590     0.0800 hc         1 JAO       0.035700
     23 H4           8.6500    -1.9220     0.1680 h1         1 JAO       0.015700
     24 H5         -11.3460    -1.1780     0.7360 hc         1 JAO       0.031367
     25 H6         -12.1990     0.2300     0.1120 hc         1 JAO       0.031367
     26 H7         -11.3380    -0.8390    -0.9910 hc         1 JAO       0.031367
     27 H8         -10.0400     1.2770    -0.5600 hc         1 JAO       0.036700
     28 H9         -10.0310     0.9250     1.1530 hc         1 JAO       0.036700
     29 H10         -8.7580    -1.1850     0.7120 hc         1 JAO       0.036700
     30 H11         -8.7680    -0.8320    -1.0020 hc         1 JAO       0.036700
     31 H12         -7.4950     1.2820    -0.5750 hc         1 JAO       0.036700
     32 H13         -7.4800     0.9270     1.1390 hc         1 JAO       0.036700
     33 H14         -6.2090    -1.1830     0.6910 hc         1 JAO       0.036700
     34 H15         -6.2290    -0.8330    -1.0230 hc         1 JAO       0.036700
     35 H16         -4.9530     1.2810    -0.6060 hc         1 JAO       0.037200
     36 H17         -4.9280     0.9270     1.1080 hc         1 JAO       0.037200
     37 H18         -3.6640    -1.1880     0.6500 hc         1 JAO       0.036700
     38 H19         -2.4070     1.2790    -0.6420 hc         1 JAO       0.037200
     39 H20         -1.1230    -1.2000     0.5990 hc         1 JAO       0.036700
     40 H21         -1.1490    -0.8330    -1.1120 hc         1 JAO       0.036700
     41 H22          0.1420     1.2730    -0.6740 hc         1 JAO       0.037700
     42 H23          0.1730     0.8920     1.0340 hc         1 JAO       0.037700
     43 H24          1.4100    -1.2330     0.5270 hc         1 JAO       0.036700
     44 H25          1.3940    -0.8300    -1.1760 hc         1 JAO       0.036700
     45 H26          2.6960     1.2620    -0.6760 hc         1 JAO       0.037700
     46 H27          2.7250     0.8260     1.0190 hc         1 JAO       0.037700
     47 H28          3.9260    -1.3120     0.4150 hc         1 JAO       0.036700
     48 H29          3.9450    -0.8040    -1.2590 hc         1 JAO       0.036700
     49 H30          5.2450     1.2600    -0.5540 hc         1 JAO       0.040200
     50 H31          6.3400    -1.5150     0.0510 hc         1 JAO       0.036200
     51 H32          7.7150     0.0520     1.3290 hc         1 JAO       0.057700
     52 H33         -3.6900    -0.8320    -1.0630 hc         1 JAO       0.036700
     53 H34         -2.3780     0.9180     1.0700 hc         1 JAO       0.037200
     54 H35          5.2880     0.6310     1.0790 hc         1 JAO       0.040200
     55 H36          6.5560    -0.5830    -1.4140 hc         1 JAO       0.036200
     56 H37          9.0240    -0.9210    -1.2360 h1         1 JAO       0.015700
     57 H38         10.8240    -1.0960     0.1980 ho         1 JAO       0.441000
@<TRIPOS>BOND
     1     1    18 1   
     2     1    20 1   
     3     1    21 1   
     4     1    22 1   
     5     2    18 1   
     6     2    19 1   
     7     2    23 1   
     8     2    56 1   
     9     3     4 1   
    10     3    24 1   
    11     3    25 1   
    12     3    26 1   
    13     4     5 1   
    14     4    27 1   
    15     4    28 1   
    16     5     6 1   
    17     5    29 1   
    18     5    30 1   
    19     6     7 1   
    20     6    31 1   
    21     6    32 1   
    22     7     8 1   
    23     7    33 1   
    24     7    34 1   
    25     8     9 1   
    26     8    35 1   
    27     8    36 1   
    28     9    10 1   
    29     9    37 1   
    30     9    52 1   
    31    10    11 1   
    32    10    38 1   
    33    10    53 1   
    34    11    12 1   
    35    11    39 1   
    36    11    40 1   
    37    12    13 1   
    38    12    41 1   
    39    12    42 1   
    40    13    14 1   
    41    13    43 1   
    42    13    44 1   
    43    14    15 1   
    44    14    45 1   
    45    14    46 1   
    46    15    16 1   
    47    15    47 1   
    48    15    48 1   
    49    16    17 1   
    50    16    49 1   
    51    16    54 1   
    52    17    18 1   
    53    17    50 1   
    54    17    55 1   
    55    18    51 1   
    56    19    57 1   
@<TRIPOS>SUBSTRUCTURE
     1 JAO         1 TEMP              0 ****  ****    0 ROOT
