@<TRIPOS>MOLECULE
JAO
   57    56     1     0     0
SMALL
No Charge or Current Charge


@<TRIPOS>ATOM
      1 CAB          8.1420     1.4850    -0.6360 c3         1 JAO      -0.082100
      2 CAE          9.1080    -0.8150    -0.0150 c3         1 JAO       0.164600
      3 CAF        -11.4490    -0.2860    -0.0620 c3         1 JAO      -0.088100
      4 CAG        -10.1510     0.4970     0.2140 c3         1 JAO      -0.074400
      5 CAH         -8.8760    -0.3220    -0.0840 c3         1 JAO      -0.075400
      6 CAI         -7.5750     0.4630     0.1930 c3         1 JAO      -0.074400
      7 CAJ         -6.2990    -0.3560    -0.1050 c3         1 JAO      -0.074400
      8 CAK         -4.9990     0.4290     0.1720 c3         1 JAO      -0.074400
      9 CAL         -3.7240    -0.3900    -0.1260 c3         1 JAO      -0.074400
     10 CAM         -2.4230     0.3950     0.1510 c3         1 JAO      -0.074400
     11 CAN         -1.1480    -0.4230    -0.1470 c3         1 JAO      -0.074400
     12 CAO          0.1530     0.3620     0.1290 c3         1 JAO      -0.074400
     13 CAP          1.4280    -0.4570    -0.1690 c3         1 JAO      -0.074400
     14 CAQ          2.7290     0.3280     0.1080 c3         1 JAO      -0.074400
     15 CAR          4.0040    -0.4910    -0.1900 c3         1 JAO      -0.076400
     16 CAS          5.3050     0.2930     0.0870 c3         1 JAO      -0.072400
     17 CAT          6.5810    -0.5300    -0.2170 c3         1 JAO      -0.074400
     18 CAU          7.9190     0.1690     0.1570 c3         1 JAO      -0.061700
     19 O3          10.3100    -0.2670     0.5400 oh         1 JAO      -0.661000
     20 H1           9.1000     1.9480    -0.3720 hc         1 JAO       0.035700
     21 H2           8.1410     1.2950    -1.7160 hc         1 JAO       0.035700
     22 H3           7.3590     2.2200    -0.4140 hc         1 JAO       0.035700
     23 H4           8.8680    -1.7600     0.4900 h1         1 JAO       0.015700
     24 H5         -11.4980    -1.1880     0.5600 hc         1 JAO       0.031367
     25 H6         -12.3240     0.3340     0.1630 hc         1 JAO       0.031367
     26 H7         -11.5040    -0.5880    -1.1150 hc         1 JAO       0.031367
     27 H8         -10.1480     1.4090    -0.3950 hc         1 JAO       0.036700
     28 H9         -10.1430     0.8130     1.2650 hc         1 JAO       0.036700
     29 H10         -8.8830    -1.2340     0.5260 hc         1 JAO       0.036700
     30 H11         -8.8880    -0.6390    -1.1340 hc         1 JAO       0.036700
     31 H12         -7.5680     1.3750    -0.4160 hc         1 JAO       0.036700
     32 H13         -7.5620     0.7800     1.2440 hc         1 JAO       0.036700
     33 H14         -6.3060    -1.2680     0.5050 hc         1 JAO       0.036700
     34 H15         -6.3120    -0.6730    -1.1550 hc         1 JAO       0.036700
     35 H16         -4.9920     1.3410    -0.4380 hc         1 JAO       0.037200
     36 H17         -4.9860     0.7460     1.2230 hc         1 JAO       0.037200
     37 H18         -3.7300    -1.3020     0.4840 hc         1 JAO       0.036700
     38 H19         -2.4160     1.3070    -0.4590 hc         1 JAO       0.037200
     39 H20         -1.1550    -1.3360     0.4630 hc         1 JAO       0.036700
     40 H21         -1.1610    -0.7400    -1.1980 hc         1 JAO       0.036700
     41 H22          0.1600     1.2740    -0.4810 hc         1 JAO       0.037700
     42 H23          0.1660     0.6780     1.1800 hc         1 JAO       0.037700
     43 H24          1.4210    -1.3700     0.4410 hc         1 JAO       0.036700
     44 H25          1.4150    -0.7740    -1.2190 hc         1 JAO       0.036700
     45 H26          2.7360     1.2400    -0.5020 hc         1 JAO       0.037700
     46 H27          2.7420     0.6440     1.1590 hc         1 JAO       0.037700
     47 H28          3.9960    -1.4040     0.4190 hc         1 JAO       0.036700
     48 H29          3.9920    -0.8080    -1.2410 hc         1 JAO       0.036700
     49 H30          5.2990     1.2050    -0.5210 hc         1 JAO       0.040200
     50 H31          6.5160    -1.4770     0.3330 hc         1 JAO       0.036200
     51 H32          7.8660     0.4280     1.2220 hc         1 JAO       0.057700
     52 H33         -3.7360    -0.7060    -1.1760 hc         1 JAO       0.036700
     53 H34         -2.4100     0.7120     1.2010 hc         1 JAO       0.037200
     54 H35          5.3200     0.6060     1.1390 hc         1 JAO       0.040200
     55 H36          6.5950    -0.7900    -1.2830 hc         1 JAO       0.036200
     56 H37          9.2460    -1.0350    -1.0830 h1         1 JAO       0.015700
     57 H38         11.0180    -0.9330     0.4000 ho         1 JAO       0.441000
@<TRIPOS>BOND
     1     1    18 1   
     2     1    20 1   
     3     1    21 1   
     4     1    22 1   
     5     2    18 1   
     6     2    19 1   
     7     2    23 1   
     8     2    56 1   
     9     3     4 1   
    10     3    24 1   
    11     3    25 1   
    12     3    26 1   
    13     4     5 1   
    14     4    27 1   
    15     4    28 1   
    16     5     6 1   
    17     5    29 1   
    18     5    30 1   
    19     6     7 1   
    20     6    31 1   
    21     6    32 1   
    22     7     8 1   
    23     7    33 1   
    24     7    34 1   
    25     8     9 1   
    26     8    35 1   
    27     8    36 1   
    28     9    10 1   
    29     9    37 1   
    30     9    52 1   
    31    10    11 1   
    32    10    38 1   
    33    10    53 1   
    34    11    12 1   
    35    11    39 1   
    36    11    40 1   
    37    12    13 1   
    38    12    41 1   
    39    12    42 1   
    40    13    14 1   
    41    13    43 1   
    42    13    44 1   
    43    14    15 1   
    44    14    45 1   
    45    14    46 1   
    46    15    16 1   
    47    15    47 1   
    48    15    48 1   
    49    16    17 1   
    50    16    49 1   
    51    16    54 1   
    52    17    18 1   
    53    17    50 1   
    54    17    55 1   
    55    18    51 1   
    56    19    57 1   
@<TRIPOS>SUBSTRUCTURE
     1 JAO         1 TEMP              0 ****  ****    0 ROOT
