@<TRIPOS>MOLECULE
JAP
   46    49     1     0     0
SMALL
No Charge or Current Charge


@<TRIPOS>ATOM
      1 C02         29.3420   -45.8280   -12.9030 cc         1 JAP       0.525300
      2 C05         31.6760   -48.7940    -8.4890 cc         1 JAP       0.814900
      3 C10         29.6490   -46.4440   -11.5660 c3         1 JAP      -0.076700
      4 C11         28.0840   -44.3910   -16.7840 cc         1 JAP       0.282900
      5 C13         29.9110   -43.6150   -15.5600 cd         1 JAP       0.402300
      6 C16         29.5710   -44.5600   -14.5530 cd         1 JAP      -0.120000
      7 C19         31.0860   -42.6850   -15.4390 c3         1 JAP      -0.141400
      8 C20         26.5100   -46.2660   -15.9810 c3         1 JAP      -0.041800
      9 C21         34.0300   -48.5300    -7.9070 c5         1 JAP       0.219800
     10 C22         34.7800   -49.4790    -6.9190 c5         1 JAP       0.173300
     11 C23         33.8380   -49.4790    -5.6840 c5         1 JAP      -0.126400
     12 C24         32.4470   -49.6130    -6.3510 c5         1 JAP       0.247800
     13 N01         32.6010   -48.6660    -7.4820 nh         1 JAP      -0.802300
     14 C03         30.8350   -48.3200   -10.3220 cd         1 JAP       0.453800
     15 N04         31.8610   -47.9980    -9.5670 nc         1 JAP      -0.757000
     16 N06         30.6230   -49.5840    -8.4640 nd         1 JAP      -0.617800
     17 N07         30.0630   -49.2800    -9.6760 na         1 JAP      -0.059700
     18 C08         28.8200   -49.9130   -10.1500 c3         1 JAP       0.078900
     19 C09         30.5540   -47.6960   -11.6640 c3         1 JAP      -0.102700
     20 N12         29.1760   -43.5280   -16.6680 nc         1 JAP      -0.648000
     21 C14         27.6970   -45.3400   -15.8340 cd         1 JAP      -0.088300
     22 N15         28.5050   -45.3790   -14.7010 na         1 JAP       0.310400
     23 N17         30.1410   -44.8230   -13.3940 nc         1 JAP      -0.382300
     24 N18         28.3180   -46.2220   -13.6510 nd         1 JAP      -0.593100
     25 H31         30.1320   -45.6980   -10.9240 hc         1 JAP       0.076200
     26 H32         28.7080   -46.7120   -11.0710 hc         1 JAP       0.076200
     27 H33         27.5330   -44.2680   -17.7060 h4         1 JAP       0.038100
     28 H35         31.1900   -42.0360   -16.3170 hc         1 JAP       0.064367
     29 H36         30.9800   -42.0420   -14.5580 hc         1 JAP       0.064367
     30 H34         32.0170   -43.2520   -15.3310 hc         1 JAP       0.064367
     31 H38         26.8240   -47.3170   -15.9530 hc         1 JAP       0.064367
     32 H37         25.7860   -46.1100   -15.1720 hc         1 JAP       0.064367
     33 H39         25.9870   -46.1010   -16.9300 hc         1 JAP       0.064367
     34 H40         34.2140   -48.8340    -8.9480 h1         1 JAP       0.062700
     35 H41         34.3740   -47.4930    -7.7920 h1         1 JAP       0.062700
     36 H42         35.7900   -49.1180    -6.6830 h1         1 JAP       0.066700
     37 H43         34.0500   -50.2990    -4.9890 hc         1 JAP       0.064200
     38 H44         33.9200   -48.5410    -5.1230 hc         1 JAP       0.064200
     39 H46         31.6340   -49.3270    -5.6690 h1         1 JAP       0.054200
     40 H45         32.2710   -50.6440    -6.6930 h1         1 JAP       0.054200
     41 H27         28.4130   -50.5720    -9.3740 h1         1 JAP       0.055033
     42 H26         28.0800   -49.1390   -10.3880 h1         1 JAP       0.055033
     43 H28         29.0290   -50.5030   -11.0500 h1         1 JAP       0.055033
     44 H29         31.5010   -47.4180   -12.1440 hc         1 JAP       0.070700
     45 H30         30.0830   -48.4340   -12.3240 hc         1 JAP       0.070700
     46 F25         34.8970   -50.7710    -7.4460 f          1 JAP      -0.265000
@<TRIPOS>BOND
     1     1     3 1   
     2     1    23 1   
     3     1    24 2   
     4     2    13 1   
     5     2    15 1   
     6     2    16 2   
     7     3    19 1   
     8     3    25 1   
     9     3    26 1   
    10     4    20 1   
    11     4    21 2   
    12     4    27 1   
    13     5     6 1   
    14     5     7 1   
    15     5    20 2   
    16     6    22 1   
    17     6    23 2   
    18     7    28 1   
    19     7    29 1   
    20     7    30 1   
    21     8    21 1   
    22     8    31 1   
    23     8    32 1   
    24     8    33 1   
    25     9    10 1   
    26     9    13 1   
    27     9    34 1   
    28     9    35 1   
    29    10    11 1   
    30    10    36 1   
    31    10    46 1   
    32    11    12 1   
    33    11    37 1   
    34    11    38 1   
    35    12    13 1   
    36    12    39 1   
    37    12    40 1   
    38    14    15 2   
    39    14    17 1   
    40    14    19 1   
    41    16    17 1   
    42    17    18 1   
    43    18    41 1   
    44    18    42 1   
    45    18    43 1   
    46    19    44 1   
    47    19    45 1   
    48    21    22 1   
    49    22    24 1   
@<TRIPOS>SUBSTRUCTURE
     1 JAP         1 TEMP              0 ****  ****    0 ROOT
