@<TRIPOS>MOLECULE
JAP
   46    49     1     0     0
SMALL
abcg2


@<TRIPOS>ATOM
      1 C02         29.5020   -46.0150   -12.9610 cc         1 JAP       0.525300
      2 C05         31.8200   -49.0770    -8.8000 cc         1 JAP       0.814900
      3 C10         29.8290   -46.7540   -11.7120 c3         1 JAP      -0.076700
      4 C11         27.8580   -43.8140   -16.2920 cc         1 JAP       0.282900
      5 C13         30.0680   -44.4010   -16.0120 cd         1 JAP       0.402300
      6 C16         29.7190   -45.0240   -14.7890 cd         1 JAP      -0.120000
      7 C19         31.4860   -44.4170   -16.4720 c3         1 JAP      -0.141400
      8 C20         26.0390   -44.4130   -14.6230 c3         1 JAP      -0.041800
      9 C21         33.2480   -47.7290    -7.3140 c5         1 JAP       0.219800
     10 C22         34.0670   -48.1700    -6.1160 c5         1 JAP       0.173300
     11 C23         33.1980   -49.2150    -5.4480 c5         1 JAP      -0.126400
     12 C24         32.5430   -49.9420    -6.6190 c5         1 JAP       0.247800
     13 N01         32.4710   -48.9090    -7.6300 nh         1 JAP      -0.802300
     14 C03         31.0470   -48.6780   -10.7070 cd         1 JAP       0.453800
     15 N04         31.7730   -48.1200    -9.7540 nc         1 JAP      -0.757000
     16 N06         31.1720   -50.1860    -9.1070 nd         1 JAP      -0.617800
     17 N07         30.6800   -49.9040   -10.3360 na         1 JAP      -0.059700
     18 C08         29.8780   -50.8940   -11.0060 c3         1 JAP       0.078900
     19 C09         30.6860   -47.9950   -11.9800 c3         1 JAP      -0.102700
     20 N12         29.1410   -43.8190   -16.7220 nc         1 JAP      -0.648000
     21 C14         27.4320   -44.3910   -15.1310 cd         1 JAP      -0.088300
     22 N15         28.4130   -44.9920   -14.4020 na         1 JAP       0.310400
     23 N17         30.4230   -45.6730   -13.8750 nc         1 JAP      -0.382300
     24 N18         28.2660   -45.6260   -13.2410 nd         1 JAP      -0.593100
     25 H31         30.3660   -46.0860   -11.0340 hc         1 JAP       0.076200
     26 H32         28.9020   -47.0350   -11.2120 hc         1 JAP       0.076200
     27 H33         27.1370   -43.3140   -16.9250 h4         1 JAP       0.038100
     28 H35         31.5830   -43.8930   -17.4190 hc         1 JAP       0.064367
     29 H36         32.1390   -43.9410   -15.7390 hc         1 JAP       0.064367
     30 H34         31.8430   -45.4410   -16.5980 hc         1 JAP       0.064367
     31 H38         25.6750   -45.4350   -14.5170 hc         1 JAP       0.064367
     32 H37         25.9700   -43.9380   -13.6430 hc         1 JAP       0.064367
     33 H39         25.3850   -43.8830   -15.3110 hc         1 JAP       0.064367
     34 H40         33.8840   -47.4100    -8.1430 h1         1 JAP       0.062700
     35 H41         32.6140   -46.8780    -7.0420 h1         1 JAP       0.062700
     36 H42         34.3520   -47.3430    -5.4660 h1         1 JAP       0.066700
     37 H43         33.7610   -49.8750    -4.7890 hc         1 JAP       0.064200
     38 H44         32.4420   -48.7100    -4.8450 hc         1 JAP       0.064200
     39 H46         31.5520   -50.3220    -6.3630 h1         1 JAP       0.054200
     40 H45         33.1420   -50.7960    -6.9550 h1         1 JAP       0.054200
     41 H27         30.4490   -51.8120   -11.1330 h1         1 JAP       0.055033
     42 H26         28.9830   -51.1100   -10.4240 h1         1 JAP       0.055033
     43 H28         29.5790   -50.5330   -11.9840 h1         1 JAP       0.055033
     44 H29         31.6070   -47.7010   -12.4880 hc         1 JAP       0.070700
     45 H30         30.1600   -48.6700   -12.6540 hc         1 JAP       0.070700
     46 F25         35.2450   -48.7790    -6.5640 f          1 JAP      -0.265000
@<TRIPOS>BOND
     1     1     3 1   
     2     1    23 1   
     3     1    24 2   
     4     2    13 1   
     5     2    15 1   
     6     2    16 2   
     7     3    19 1   
     8     3    25 1   
     9     3    26 1   
    10     4    20 1   
    11     4    21 2   
    12     4    27 1   
    13     5     6 1   
    14     5     7 1   
    15     5    20 2   
    16     6    22 1   
    17     6    23 2   
    18     7    28 1   
    19     7    29 1   
    20     7    30 1   
    21     8    21 1   
    22     8    31 1   
    23     8    32 1   
    24     8    33 1   
    25     9    10 1   
    26     9    13 1   
    27     9    34 1   
    28     9    35 1   
    29    10    11 1   
    30    10    36 1   
    31    10    46 1   
    32    11    12 1   
    33    11    37 1   
    34    11    38 1   
    35    12    13 1   
    36    12    39 1   
    37    12    40 1   
    38    14    15 2   
    39    14    17 1   
    40    14    19 1   
    41    16    17 1   
    42    17    18 1   
    43    18    41 1   
    44    18    42 1   
    45    18    43 1   
    46    19    44 1   
    47    19    45 1   
    48    21    22 1   
    49    22    24 1   
@<TRIPOS>SUBSTRUCTURE
     1 JAP         1 TEMP              0 ****  ****    0 ROOT
