@<TRIPOS>MOLECULE
JAQ
   66    70     1     0     0
SMALL
bcc


@<TRIPOS>ATOM
      1 N1          -6.3570   -40.6950    13.7060 n3         1 JAQ      -0.722600
      2 N3         -12.5790   -32.5380     9.3480 nu         1 JAQ      -0.751300
      3 C4         -11.7790   -36.5570     8.5630 ca         1 JAQ      -0.124000
      4 C5         -11.3280   -35.9980     9.7580 cp         1 JAQ      -0.016000
      5 C6         -10.5750   -36.8000    10.7420 cp         1 JAQ      -0.039000
      6 C7          -9.5370   -36.2390    11.4880 ca         1 JAQ      -0.114000
      7 C8          -8.8280   -36.9990    12.4060 ca         1 JAQ      -0.126000
      8 C10         -8.3290   -39.1810    13.5690 c3         1 JAQ      -0.034100
      9 C13         -4.6710   -42.4620    13.7700 c6         1 JAQ       0.163300
     10 C15         -5.0210   -41.1310    15.7030 c6         1 JAQ       0.163300
     11 C17        -10.1620   -38.9030    11.8670 ca         1 JAQ      -0.126000
     12 C20        -12.3130   -33.8910     9.0730 ca         1 JAQ       0.139600
     13 C21        -11.6300   -31.5900     9.5530 cc         1 JAQ       0.703300
     14 C22        -10.7550   -29.5980     9.8400 cd         1 JAQ       0.332300
     15 C24        -12.0410   -26.2440    10.0990 ca         1 JAQ       0.462200
     16 C26         -9.6840   -26.1790    10.2470 ca         1 JAQ       0.720200
     17 C2         -12.7660   -34.4520     7.8730 ca         1 JAQ      -0.094300
     18 C3         -12.4930   -35.7970     7.6510 ca         1 JAQ      -0.113000
     19 C9          -9.1270   -38.3440    12.6120 ca         1 JAQ      -0.074300
     20 C11         -7.0820   -39.7460    12.8870 c3         1 JAQ       0.170800
     21 C12         -5.3690   -41.4130    12.9250 c6         1 JAQ       0.165300
     22 N2          -4.0400   -41.8540    14.9220 n3         1 JAQ      -0.716600
     23 C14         -3.3340   -42.8280    15.7190 c3         1 JAQ       0.153100
     24 C16         -5.7210   -40.0830    14.8570 c6         1 JAQ       0.165300
     25 C18        -10.8760   -38.1470    10.9500 ca         1 JAQ      -0.114000
     26 C19        -11.6240   -34.6580    10.0050 ca         1 JAQ      -0.130000
     27 N4         -11.9000   -30.3320     9.6810 nd         1 JAQ      -0.685000
     28 C23        -10.8260   -28.1340     9.9880 ca         1 JAQ       0.675000
     29 N5         -12.0260   -27.5760     9.9730 nb         1 JAQ      -0.702000
     30 C25        -10.9110   -25.4830    10.2380 ca         1 JAQ      -0.447600
     31 N7          -9.6630   -27.5060    10.1190 nb         1 JAQ      -0.800000
     32 C27         -9.5960   -30.3060     9.8410 cc         1 JAQ      -0.175400
     33 S1          -9.9300   -31.9820     9.6280 ss         1 JAQ      -0.233300
     34 H2         -13.4830   -32.1700     9.0870 hn         1 JAQ       0.455800
     35 H3         -11.5580   -37.5910     8.3300 ha         1 JAQ       0.136000
     36 H4          -9.2640   -35.2010    11.3400 ha         1 JAQ       0.133500
     37 H5          -8.0260   -36.5380    12.9700 ha         1 JAQ       0.131500
     38 H6          -8.0510   -38.5780    14.4370 hc         1 JAQ       0.055200
     39 H7          -8.9350   -40.0120    13.9360 hc         1 JAQ       0.055200
     40 H8          -5.4050   -43.2330    14.0660 h1         1 JAQ       0.037200
     41 H9          -3.9100   -42.9600    13.1640 h1         1 JAQ       0.037200
     42 H10         -4.5210   -40.6370    16.5390 h1         1 JAQ       0.037200
     43 H11         -5.7770   -41.8100    16.1350 h1         1 JAQ       0.037200
     44 H12        -10.4230   -39.9450    12.0120 ha         1 JAQ       0.131500
     45 H13        -13.0160   -25.7700    10.0850 h4         1 JAQ       0.020100
     46 H14        -14.4810   -33.3010     7.2440 hc         1 JAQ       0.047033
     47 H15        -12.9540   -32.7330     6.5880 hc         1 JAQ       0.047033
     48 H16        -13.6950   -34.2030     5.9590 hc         1 JAQ       0.047033
     49 H17        -12.8250   -36.2540     6.7270 ha         1 JAQ       0.133000
     50 H18         -7.3970   -40.2660    11.9770 h1         1 JAQ       0.034200
     51 H19         -6.4380   -38.9110    12.5590 h1         1 JAQ       0.034200
     52 H20         -5.8660   -41.9070    12.0860 h1         1 JAQ       0.037450
     53 H21         -4.6140   -40.7310    12.4970 h1         1 JAQ       0.037450
     54 H23         -2.8350   -42.3370    16.5570 h1         1 JAQ       0.030033
     55 H24         -3.9920   -43.6090    16.1320 h1         1 JAQ       0.030033
     56 H25         -2.5690   -43.3210    15.1180 h1         1 JAQ       0.030033
     57 H26         -4.9910   -39.3120    14.5540 h1         1 JAQ       0.037450
     58 H27         -6.4700   -39.5880    15.4780 h1         1 JAQ       0.037450
     59 H28        -11.6900   -38.6090    10.4070 ha         1 JAQ       0.133500
     60 H29        -11.3480   -34.2110    10.9530 ha         1 JAQ       0.150000
     61 H30        -10.9570   -24.4070    10.3370 ha         1 JAQ       0.146000
     62 H31         -7.6530   -26.0620    10.3100 hn         1 JAQ       0.440300
     63 H32         -8.4590   -24.5440    10.4020 hn         1 JAQ       0.440300
     64 H33         -8.5880   -29.9470     9.9600 h4         1 JAQ       0.191000
     65 C1         -13.5110   -33.6300     6.8650 c3         1 JAQ      -0.050800
     66 N6          -8.5120   -25.5470    10.3990 nv         1 JAQ      -0.975500
@<TRIPOS>BOND
     1     1    20 1   
     2     1    21 1   
     3     1    24 1   
     4     2    12 1   
     5     2    13 1   
     6     2    34 1   
     7     3     4 ar  
     8     3    18 ar  
     9     3    35 1   
    10     4     5 1   
    11     4    26 ar  
    12     5     6 ar  
    13     5    25 ar  
    14     6     7 ar  
    15     6    36 1   
    16     7    19 ar  
    17     7    37 1   
    18     8    19 1   
    19     8    20 1   
    20     8    38 1   
    21     8    39 1   
    22     9    21 1   
    23     9    22 1   
    24     9    40 1   
    25     9    41 1   
    26    10    22 1   
    27    10    24 1   
    28    10    42 1   
    29    10    43 1   
    30    11    19 ar  
    31    11    25 ar  
    32    11    44 1   
    33    12    17 ar  
    34    12    26 ar  
    35    13    27 2   
    36    13    33 1   
    37    14    27 1   
    38    14    28 1   
    39    14    32 2   
    40    15    29 ar  
    41    15    30 ar  
    42    15    45 1   
    43    16    30 ar  
    44    16    31 ar  
    45    16    66 1   
    46    17    18 ar  
    47    17    65 1   
    48    18    49 1   
    49    20    50 1   
    50    20    51 1   
    51    21    52 1   
    52    21    53 1   
    53    22    23 1   
    54    23    54 1   
    55    23    55 1   
    56    23    56 1   
    57    24    57 1   
    58    24    58 1   
    59    25    59 1   
    60    26    60 1   
    61    28    29 ar  
    62    28    31 ar  
    63    30    61 1   
    64    32    33 1   
    65    32    64 1   
    66    46    65 1   
    67    47    65 1   
    68    48    65 1   
    69    62    66 1   
    70    63    66 1   
@<TRIPOS>SUBSTRUCTURE
     1 JAQ         1 TEMP              0 ****  ****    0 ROOT
