@<TRIPOS>MOLECULE
JAQ
   66    70     1     0     0
SMALL
No Charge or Current Charge


@<TRIPOS>ATOM
      1 N1          -6.3530   -40.9490    13.7330 n3         1 JAQ      -0.722600
      2 N3         -12.2390   -32.3890     9.2650 nu         1 JAQ      -0.944900
      3 C4         -11.8790   -36.5270     8.5880 ca         1 JAQ      -0.106000
      4 C5         -11.2730   -35.9640     9.7360 cp         1 JAQ      -0.016000
      5 C6         -10.5130   -36.8130    10.7090 cp         1 JAQ      -0.039000
      6 C7          -9.3660   -36.3140    11.3760 ca         1 JAQ      -0.096000
      7 C8          -8.6520   -37.1090    12.2880 ca         1 JAQ      -0.108000
      8 C10         -8.2870   -39.2870    13.5450 c3         1 JAQ      -0.034100
      9 C13         -4.5900   -42.7830    13.8420 c6         1 JAQ       0.163300
     10 C15         -4.9690   -41.3990    15.8240 c6         1 JAQ       0.163300
     11 C17        -10.2010   -38.9380    11.9060 ca         1 JAQ      -0.108000
     12 C20        -12.1170   -33.7580     9.0290 ca         1 JAQ       0.278000
     13 C21        -11.3470   -31.4370     9.6190 cc         1 JAQ       0.703300
     14 C22        -10.7350   -29.3390     9.9140 cd         1 JAQ       0.267000
     15 C24        -12.3710   -26.0680    10.1220 ca         1 JAQ       0.133900
     16 C26        -10.0090   -25.7650     9.9840 ca         1 JAQ       0.391900
     17 C2         -12.7250   -34.3430     7.8940 ca         1 JAQ      -0.094300
     18 C3         -12.5960   -35.7290     7.6820 ca         1 JAQ      -0.095000
     19 C9          -9.0660   -38.4250    12.5600 ca         1 JAQ      -0.074300
     20 C11         -7.0730   -39.9730    12.8770 c3         1 JAQ       0.170800
     21 C12         -5.3310   -41.7240    12.9620 c6         1 JAQ       0.165300
     22 N2          -3.9530   -42.1720    15.0470 n3         1 JAQ      -0.716600
     23 C14         -3.2290   -43.1600    15.8750 c3         1 JAQ       0.153100
     24 C16         -5.7150   -40.3420    14.9460 c6         1 JAQ       0.165300
     25 C18        -10.9140   -38.1420    10.9930 ca         1 JAQ      -0.096000
     26 C19        -11.4140   -34.5700     9.9370 ca         1 JAQ      -0.112000
     27 N4         -11.7740   -30.2020     9.5670 nd         1 JAQ      -0.685000
     28 C23        -10.9320   -27.8660     9.9690 ca         1 JAQ       0.149000
     29 N5         -12.2040   -27.4040    10.0670 nb         1 JAQ      -0.176000
     30 C25        -11.2760   -25.1920    10.0820 ca         1 JAQ      -0.299000
     31 N7          -9.8210   -27.0890     9.9270 nb         1 JAQ      -0.274000
     32 C27         -9.5430   -29.9700    10.2160 cc         1 JAQ      -0.237000
     33 S1          -9.6770   -31.6970    10.0480 ss         1 JAQ      -0.088400
     34 H2         -13.0360   -31.9390     8.8280 hn         1 JAQ       0.511000
     35 H3         -11.7840   -37.5910     8.3890 ha         1 JAQ       0.118000
     36 H4          -9.0160   -35.3040    11.1740 ha         1 JAQ       0.115500
     37 H5          -7.7720   -36.7010    12.7810 ha         1 JAQ       0.113500
     38 H6          -7.9480   -38.6680    14.3830 hc         1 JAQ       0.055200
     39 H7          -8.9390   -40.0580    13.9730 hc         1 JAQ       0.055200
     40 H8          -5.3160   -43.5520    14.1470 h1         1 JAQ       0.037200
     41 H9          -3.8310   -43.2840    13.2230 h1         1 JAQ       0.037200
     42 H10         -4.4890   -40.8800    16.6660 h1         1 JAQ       0.037200
     43 H11         -5.7160   -42.0840    16.2530 h1         1 JAQ       0.037200
     44 H12        -10.5340   -39.9540    12.1050 ha         1 JAQ       0.113500
     45 H13        -13.3930   -25.7000    10.2000 h4         1 JAQ       0.020100
     46 H14        -14.3990   -33.0620     7.3490 hc         1 JAQ       0.047033
     47 H15        -12.8930   -32.6860     6.4890 hc         1 JAQ       0.047033
     48 H16        -13.8450   -34.1010     6.0320 hc         1 JAQ       0.047033
     49 H17        -13.0500   -36.1940     6.8090 ha         1 JAQ       0.115000
     50 H18         -7.4440   -40.4900    11.9810 h1         1 JAQ       0.034200
     51 H19         -6.3790   -39.1950    12.5290 h1         1 JAQ       0.034200
     52 H20         -5.8060   -42.2440    12.1180 h1         1 JAQ       0.037450
     53 H21         -4.5810   -41.0400    12.5360 h1         1 JAQ       0.037450
     54 H23         -2.7330   -42.6660    16.7220 h1         1 JAQ       0.030033
     55 H24         -3.9170   -43.9180    16.2730 h1         1 JAQ       0.030033
     56 H25         -2.4580   -43.6710    15.2830 h1         1 JAQ       0.030033
     57 H26         -4.9940   -39.5670    14.6450 h1         1 JAQ       0.037450
     58 H27         -6.4680   -39.8520    15.5780 h1         1 JAQ       0.037450
     59 H28        -11.7960   -38.5590    10.5120 ha         1 JAQ       0.115500
     60 H29        -10.9910   -34.1190    10.8280 ha         1 JAQ       0.132000
     61 H30        -11.4150   -24.1160    10.1290 ha         1 JAQ       0.128000
     62 H31         -8.0180   -25.4450     9.6590 hn         1 JAQ       0.495500
     63 H32         -8.9800   -24.0080     9.7430 hn         1 JAQ       0.495500
     64 H33         -8.6030   -29.5270    10.5190 h4         1 JAQ       0.173000
     65 C1         -13.5080   -33.5030     6.8870 c3         1 JAQ      -0.050800
     66 N6          -8.8910   -25.0030     9.9380 nv         1 JAQ      -1.085900
@<TRIPOS>BOND
     1     1    20 1   
     2     1    21 1   
     3     1    24 1   
     4     2    12 1   
     5     2    13 1   
     6     2    34 1   
     7     3     4 ar  
     8     3    18 ar  
     9     3    35 1   
    10     4     5 1   
    11     4    26 ar  
    12     5     6 ar  
    13     5    25 ar  
    14     6     7 ar  
    15     6    36 1   
    16     7    19 ar  
    17     7    37 1   
    18     8    19 1   
    19     8    20 1   
    20     8    38 1   
    21     8    39 1   
    22     9    21 1   
    23     9    22 1   
    24     9    40 1   
    25     9    41 1   
    26    10    22 1   
    27    10    24 1   
    28    10    42 1   
    29    10    43 1   
    30    11    19 ar  
    31    11    25 ar  
    32    11    44 1   
    33    12    17 ar  
    34    12    26 ar  
    35    13    27 2   
    36    13    33 1   
    37    14    27 1   
    38    14    28 1   
    39    14    32 2   
    40    15    29 ar  
    41    15    30 ar  
    42    15    45 1   
    43    16    30 ar  
    44    16    31 ar  
    45    16    66 1   
    46    17    18 ar  
    47    17    65 1   
    48    18    49 1   
    49    20    50 1   
    50    20    51 1   
    51    21    52 1   
    52    21    53 1   
    53    22    23 1   
    54    23    54 1   
    55    23    55 1   
    56    23    56 1   
    57    24    57 1   
    58    24    58 1   
    59    25    59 1   
    60    26    60 1   
    61    28    29 ar  
    62    28    31 ar  
    63    30    61 1   
    64    32    33 1   
    65    32    64 1   
    66    46    65 1   
    67    47    65 1   
    68    48    65 1   
    69    62    66 1   
    70    63    66 1   
@<TRIPOS>SUBSTRUCTURE
     1 JAQ         1 TEMP              0 ****  ****    0 ROOT
