@<TRIPOS>MOLECULE
JAR
   51    54     1     0     0
SMALL
abcg2


@<TRIPOS>ATOM
      1 C1          -2.5580    -3.6630     0.3860 c3         1 JAR      -0.103600
      2 C2          -1.6920    -2.6860    -0.3930 c3         1 JAR       0.106300
      3 C3          -1.0940    -3.3030    -1.6490 c3         1 JAR      -0.103600
      4 N4          -2.4470    -1.4850    -0.7250 na         1 JAR       0.134800
      5 N5          -3.4970    -1.5360    -1.5600 nc         1 JAR      -0.514800
      6 C6          -3.9430    -0.3080    -1.6850 cd         1 JAR       0.315900
      7 C7          -3.1660     0.5780    -0.9140 cd         1 JAR      -0.333600
      8 C8          -3.1400     1.9820    -0.6510 c          1 JAR       0.620600
      9 O9          -3.8870     2.8450    -1.0780 o          1 JAR      -0.537000
     10 N10         -2.0920     2.3000     0.2160 ns         1 JAR      -0.435400
     11 C11         -1.1990     1.4250     0.7610 cd         1 JAR       0.537900
     12 N12         -1.2310     0.1520     0.5330 nc         1 JAR      -0.620100
     13 C13         -2.2120    -0.2320    -0.3090 cc         1 JAR       0.139400
     14 C14         -0.1280     2.0310     1.6170 c5         1 JAR      -0.112000
     15 C16          1.0640     2.4250     0.7340 c5         1 JAR       0.178800
     16 N17          1.7270     1.1570     0.5590 n3         1 JAR      -0.740600
     17 C18          2.9710     1.1740    -0.1570 c3         1 JAR       0.233100
     18 C19          3.3790    -0.2030    -0.6230 ca         1 JAR      -0.089300
     19 C20          2.4220    -1.1640    -0.9450 ca         1 JAR      -0.100000
     20 C21          2.8050    -2.4150    -1.4100 ca         1 JAR      -0.115500
     21 C22          4.1510    -2.7240    -1.5640 ca         1 JAR      -0.109000
     22 C23          5.1110    -1.7740    -1.2430 ca         1 JAR      -0.115500
     23 C24          4.7250    -0.5250    -0.7720 ca         1 JAR      -0.100000
     24 C25          1.7640     0.5250     1.8650 c5         1 JAR       0.178800
     25 C26          0.5060     1.0270     2.6000 c5         1 JAR      -0.058700
     26 C28          0.8370     1.6850     3.9330 c3         1 JAR      -0.093100
     27 H1          -2.9310    -3.2120     1.3050 hc         1 JAR       0.049200
     28 H1A         -3.4120    -3.9920    -0.2080 hc         1 JAR       0.049200
     29 H1B         -1.9750    -4.5430     0.6540 hc         1 JAR       0.049200
     30 H2          -0.8810    -2.3370     0.2490 h1         1 JAR       0.079700
     31 H3          -1.8690    -3.6830    -2.3140 hc         1 JAR       0.049200
     32 H3A         -0.4930    -2.5780    -2.1990 hc         1 JAR       0.049200
     33 H3B         -0.4480    -4.1380    -1.3750 hc         1 JAR       0.049200
     34 H6          -4.7940    -0.0950    -2.3130 h4         1 JAR       0.050100
     35 HN10        -2.0030     3.2780     0.4620 hn         1 JAR       0.324500
     36 H14         -0.5340     2.9020     2.1380 hc         1 JAR       0.070700
     37 H16          0.7760     2.8600    -0.2260 h1         1 JAR       0.042700
     38 H16A         1.6740     3.1770     1.2630 h1         1 JAR       0.042700
     39 H18          2.8530     1.8170    -1.0360 h1         1 JAR       0.037700
     40 H18A         3.7920     1.6170     0.4330 h1         1 JAR       0.037700
     41 H20          1.3730    -0.9260    -0.8110 ha         1 JAR       0.121500
     42 H21          2.0510    -3.1540    -1.6530 ha         1 JAR       0.110000
     43 H22          4.4490    -3.7000    -1.9250 ha         1 JAR       0.111000
     44 H23          6.1620    -2.0060    -1.3510 ha         1 JAR       0.110000
     45 H24          5.4820     0.2080    -0.5150 ha         1 JAR       0.121500
     46 H25          1.7830    -0.5620     1.7670 h1         1 JAR       0.043700
     47 H25A         2.6690     0.8160     2.4240 h1         1 JAR       0.043700
     48 H26         -0.1810     0.1990     2.7800 hc         1 JAR       0.080700
     49 H28          1.4880     2.5520     3.8040 hc         1 JAR       0.037700
     50 H28A        -0.0670     2.0180     4.4450 hc         1 JAR       0.037700
     51 H28B         1.3530     0.9850     4.5920 hc         1 JAR       0.037700
@<TRIPOS>BOND
     1     1     2 1   
     2     1    27 1   
     3     1    28 1   
     4     1    29 1   
     5     2     3 1   
     6     2     4 1   
     7     2    30 1   
     8     3    31 1   
     9     3    32 1   
    10     3    33 1   
    11     4     5 1   
    12     4    13 1   
    13     5     6 2   
    14     6     7 1   
    15     6    34 1   
    16     7     8 1   
    17     7    13 2   
    18     8     9 2   
    19     8    10 1   
    20    10    11 1   
    21    10    35 1   
    22    11    12 2   
    23    11    14 1   
    24    12    13 1   
    25    14    15 1   
    26    14    25 1   
    27    14    36 1   
    28    15    16 1   
    29    15    37 1   
    30    15    38 1   
    31    16    17 1   
    32    16    24 1   
    33    17    18 1   
    34    17    39 1   
    35    17    40 1   
    36    18    19 ar  
    37    18    23 ar  
    38    19    20 ar  
    39    19    41 1   
    40    20    21 ar  
    41    20    42 1   
    42    21    22 ar  
    43    21    43 1   
    44    22    23 ar  
    45    22    44 1   
    46    23    45 1   
    47    24    25 1   
    48    24    46 1   
    49    24    47 1   
    50    25    26 1   
    51    25    48 1   
    52    26    49 1   
    53    26    50 1   
    54    26    51 1   
@<TRIPOS>SUBSTRUCTURE
     1 JAR         1 TEMP              0 ****  ****    0 ROOT
