@<TRIPOS>MOLECULE
JAR
   51    54     1     0     0
SMALL
No Charge or Current Charge


@<TRIPOS>ATOM
      1 C1          -3.1970    -3.8910     0.3460 c3         1 JAR      -0.103600
      2 C2          -2.0930    -2.9090    -0.1110 c3         1 JAR       0.106300
      3 C3          -1.1270    -3.5570    -1.1270 c3         1 JAR      -0.103600
      4 N4          -2.6380    -1.6280    -0.6140 na         1 JAR       0.134800
      5 N5          -3.6200    -1.5960    -1.6000 nc         1 JAR      -0.514800
      6 C6          -3.8040    -0.2970    -1.7930 cd         1 JAR       0.315900
      7 C7          -2.9720     0.4890    -0.9780 cd         1 JAR      -0.333600
      8 C8          -2.8350     1.9300    -0.8730 c          1 JAR       0.620600
      9 O9          -3.4750     2.7450    -1.5140 o          1 JAR      -0.537000
     10 N10         -1.8880     2.2750     0.0400 ns         1 JAR      -0.435400
     11 C11         -1.1350     1.3840     0.7720 cd         1 JAR       0.537900
     12 N12         -1.2990     0.0550     0.6910 nc         1 JAR      -0.620100
     13 C13         -2.2360    -0.3520    -0.2260 cc         1 JAR       0.139400
     14 C14         -0.1100     2.0070     1.7280 c5         1 JAR      -0.112000
     15 C16          1.0690     2.5720     0.8970 c5         1 JAR       0.178800
     16 N17          1.7140     1.3080     0.5080 n3         1 JAR      -0.740600
     17 C18          2.9030     1.4020    -0.3620 c3         1 JAR       0.233100
     18 C19          3.3910     0.0330    -0.8310 ca         1 JAR      -0.089300
     19 C20          2.5210    -0.8260    -1.5320 ca         1 JAR      -0.100000
     20 C21          2.9610    -2.0910    -1.9610 ca         1 JAR      -0.115500
     21 C22          4.2770    -2.5040    -1.6910 ca         1 JAR      -0.109000
     22 C23          5.1500    -1.6530    -0.9930 ca         1 JAR      -0.115500
     23 C24          4.7090    -0.3890    -0.5630 ca         1 JAR      -0.100000
     24 C25          1.8930     0.5640     1.7800 c5         1 JAR       0.178800
     25 C26          0.6470     0.9680     2.6420 c5         1 JAR      -0.058700
     26 C28          1.0480     1.5500     4.0200 c3         1 JAR      -0.093100
     27 H1          -3.8490    -3.4160     1.0890 hc         1 JAR       0.049200
     28 H1A         -3.8150    -4.2120    -0.5010 hc         1 JAR       0.049200
     29 H1B         -2.7530    -4.7830     0.8040 hc         1 JAR       0.049200
     30 H2          -1.5000    -2.6660     0.7810 h1         1 JAR       0.079700
     31 H3          -1.6550    -3.8320    -2.0480 hc         1 JAR       0.049200
     32 H3A         -0.3200    -2.8610    -1.3870 hc         1 JAR       0.049200
     33 H3B         -0.6720    -4.4620    -0.7060 hc         1 JAR       0.049200
     34 H6          -4.5300     0.0350    -2.5250 h4         1 JAR       0.050100
     35 HN10        -1.7420     3.2650     0.1580 hn         1 JAR       0.324500
     36 H14         -0.5840     2.7940     2.3250 hc         1 JAR       0.070700
     37 H16          0.7360     3.1590     0.0290 h1         1 JAR       0.042700
     38 H16A         1.7360     3.2020     1.5030 h1         1 JAR       0.042700
     39 H18          2.6640     2.0010    -1.2510 h1         1 JAR       0.037700
     40 H18A         3.7150     1.9210     0.1660 h1         1 JAR       0.037700
     41 H20          1.4990    -0.5130    -1.7370 ha         1 JAR       0.121500
     42 H21          2.2830    -2.7490    -2.4990 ha         1 JAR       0.110000
     43 H22          4.6190    -3.4830    -2.0230 ha         1 JAR       0.111000
     44 H23          6.1680    -1.9740    -0.7830 ha         1 JAR       0.110000
     45 H24          5.3920     0.2610    -0.0200 ha         1 JAR       0.121500
     46 H25          1.9360    -0.5200     1.6110 h1         1 JAR       0.043700
     47 H25A         2.8270     0.8580     2.2800 h1         1 JAR       0.043700
     48 H26          0.0320     0.0900     2.8720 hc         1 JAR       0.080700
     49 H28          1.6800     2.4400     3.9120 hc         1 JAR       0.037700
     50 H28A         0.1620     1.8360     4.5990 hc         1 JAR       0.037700
     51 H28B         1.6070     0.8130     4.6090 hc         1 JAR       0.037700
@<TRIPOS>BOND
     1     1     2 1   
     2     1    27 1   
     3     1    28 1   
     4     1    29 1   
     5     2     3 1   
     6     2     4 1   
     7     2    30 1   
     8     3    31 1   
     9     3    32 1   
    10     3    33 1   
    11     4     5 1   
    12     4    13 1   
    13     5     6 2   
    14     6     7 1   
    15     6    34 1   
    16     7     8 1   
    17     7    13 2   
    18     8     9 2   
    19     8    10 1   
    20    10    11 1   
    21    10    35 1   
    22    11    12 2   
    23    11    14 1   
    24    12    13 1   
    25    14    15 1   
    26    14    25 1   
    27    14    36 1   
    28    15    16 1   
    29    15    37 1   
    30    15    38 1   
    31    16    17 1   
    32    16    24 1   
    33    17    18 1   
    34    17    39 1   
    35    17    40 1   
    36    18    19 ar  
    37    18    23 ar  
    38    19    20 ar  
    39    19    41 1   
    40    20    21 ar  
    41    20    42 1   
    42    21    22 ar  
    43    21    43 1   
    44    22    23 ar  
    45    22    44 1   
    46    23    45 1   
    47    24    25 1   
    48    24    46 1   
    49    24    47 1   
    50    25    26 1   
    51    25    48 1   
    52    26    49 1   
    53    26    50 1   
    54    26    51 1   
@<TRIPOS>SUBSTRUCTURE
     1 JAR         1 TEMP              0 ****  ****    0 ROOT
