@<TRIPOS>MOLECULE
JAS
  125   128     1     0     0
SMALL
abcg2


@<TRIPOS>ATOM
      1 O13         12.5820     6.4830     4.4420 oh         1 JAS      -0.710000
      2 C40         12.8220     5.6870     5.5770 c3         1 JAS       0.431800
      3 N4          12.8270     4.2750     5.3440 nh         1 JAS      -0.689400
      4 C41         13.9480     3.7520     4.5940 c3         1 JAS       0.204100
      5 C35         11.6460     3.5650     5.2660 c2         1 JAS       0.005000
      6 C34         10.3830     3.9960     5.3740 c2         1 JAS      -0.316200
      7 C33          9.2300     3.0380     5.3980 c3         1 JAS      -0.050200
      8 C32          8.3050     3.1310     4.1760 c3         1 JAS       0.188300
      9 O12          7.7260     4.4120     4.0490 os         1 JAS      -0.463000
     10 C42          6.7180     4.6960     4.9800 c3         1 JAS       0.145900
     11 C31          9.0390     2.8620     2.8650 c3         1 JAS      -0.166700
     12 C39          9.5250     1.4160     2.7530 c3         1 JAS      -0.081100
     13 C30          8.1360     3.1560     1.6780 c          1 JAS       0.592100
     14 O11          7.0340     2.6600     1.5900 o          1 JAS      -0.527100
     15 C29          8.7150     4.0360     0.6010 c3         1 JAS      -0.177400
     16 C28          8.9170     5.4690     1.1010 c3         1 JAS      -0.065400
     17 C27          9.5550     6.3990     0.0640 c3         1 JAS      -0.090700
     18 C38         10.9220     5.9110    -0.4070 c3         1 JAS      -0.090100
     19 C26          9.6480     7.8470     0.5930 c3         1 JAS       0.181300
     20 O10          8.4020     8.3380     1.0260 os         1 JAS      -0.443000
     21 C43          7.4600     8.5190     0.0020 c3         1 JAS       0.144900
     22 C25         10.6540     7.9590     1.7400 c3         1 JAS      -0.098400
     23 C24         10.5840     9.1910     2.6340 c3         1 JAS       0.194300
     24 O2           9.3660     9.2130     3.3990 os         1 JAS      -0.433100
     25 C1           9.2100     8.4420     4.4510 c          1 JAS       0.624100
     26 O1          10.0570     7.6930     4.8860 o          1 JAS      -0.531000
     27 C2           7.8300     8.5730     5.0360 c3         1 JAS      -0.172400
     28 C3           7.7760     8.2170     6.5150 c3         1 JAS       0.179300
     29 O3           8.4910     9.1420     7.3070 oh         1 JAS      -0.667000
     30 C4           6.3400     8.0160     6.9680 c3         1 JAS      -0.144400
     31 C5           6.1940     7.4740     8.3920 c3         1 JAS       0.196300
     32 O4           7.0390     6.3650     8.6280 oh         1 JAS      -0.669000
     33 C6           4.7620     7.0180     8.5950 c3         1 JAS      -0.173400
     34 C23         10.6770    10.5410     1.9200 c3         1 JAS      -0.057700
     35 C37         12.0700    10.7150     1.3190 c3         1 JAS      -0.093100
     36 C22         10.3180    11.7110     2.8460 c3         1 JAS      -0.061400
     37 C21         11.1280    11.7940     4.1600 c3         1 JAS      -0.055200
     38 C20         10.2470    11.9410     5.3520 c2         1 JAS      -0.127200
     39 C19         10.3090    12.9540     6.2170 ce         1 JAS      -0.310800
     40 C18          9.4350    13.0860     7.3620 cc         1 JAS       0.515800
     41 O9           9.6540    14.1520     8.1530 os         1 JAS      -0.246000
     42 C17          8.7340    14.0890     9.1290 cc         1 JAS       0.141900
     43 N3           8.4470    12.3530     7.7660 nd         1 JAS      -0.652000
     44 C16          7.9860    12.9830     8.8980 cd         1 JAS       0.188000
     45 C15          6.8590    12.5270     9.6730 cd         1 JAS       0.428000
     46 N2           6.0640    11.5340     9.4730 nc         1 JAS      -0.603000
     47 O8           6.5580    13.2520    10.7630 os         1 JAS      -0.254000
     48 C14          5.4710    12.6670    11.2980 cd         1 JAS       0.143900
     49 C13          5.1600    11.6100    10.5110 cc         1 JAS       0.193000
     50 C12          4.0660    10.6830    10.6690 cc         1 JAS       0.427000
     51 N1           3.7680     9.6610     9.9480 nd         1 JAS      -0.628000
     52 O7           3.2270    10.8840    11.6950 os         1 JAS      -0.259000
     53 C11          2.3120     9.8870    11.6030 cc         1 JAS       0.117900
     54 C10          2.6390     9.1300    10.5360 cd         1 JAS       0.189300
     55 C9           2.0000     7.8820    10.0140 c3         1 JAS       0.166000
     56 O6           1.7590     7.9650     8.6350 os         1 JAS      -0.439000
     57 C44          0.7730     8.9070     8.2840 c3         1 JAS       0.145900
     58 C8           2.8630     6.6440    10.3220 c3         1 JAS      -0.159700
     59 C36          2.3170     5.3850     9.6480 c3         1 JAS      -0.077100
     60 C7           4.3460     6.8420    10.0300 c          1 JAS       0.599100
     61 O5           5.1460     6.8360    10.9380 o          1 JAS      -0.520100
     62 H401        13.8160     5.9490     5.9520 h2         1 JAS       0.053200
     63 H402        12.0990     5.8980     6.3710 h2         1 JAS       0.053200
     64 H411        14.8760     4.1860     4.9680 h1         1 JAS       0.030367
     65 H412        13.8860     3.9580     3.5210 h1         1 JAS       0.030367
     66 H413        14.0120     2.6710     4.7240 h1         1 JAS       0.030367
     67 H35         11.8110     2.4970     5.1380 h4         1 JAS       0.166000
     68 H34         10.1470     5.0520     5.4490 ha         1 JAS       0.192000
     69 H331         9.5930     2.0100     5.4820 hc         1 JAS       0.044200
     70 H332         8.6230     3.1930     6.2970 hc         1 JAS       0.044200
     71 H32          7.5110     2.3760     4.2940 h1         1 JAS       0.043700
     72 H421         6.2120     5.6040     4.6500 h1         1 JAS       0.030367
     73 H422         7.0990     4.8720     5.9930 h1         1 JAS       0.030367
     74 H423         5.9710     3.8950     5.0360 h1         1 JAS       0.030367
     75 H31          9.9120     3.5180     2.8250 hc         1 JAS       0.077700
     76 H391         8.7050     0.7090     2.8850 hc         1 JAS       0.039367
     77 H392         9.9790     1.2270     1.7790 hc         1 JAS       0.039367
     78 H393        10.2830     1.2000     3.5050 hc         1 JAS       0.039367
     79 H291         9.6800     3.6070     0.3120 hc         1 JAS       0.058200
     80 H292         8.0660     4.0220    -0.2780 hc         1 JAS       0.058200
     81 H281         7.9540     5.8750     1.4170 hc         1 JAS       0.060700
     82 H282         9.5350     5.4400     2.0010 hc         1 JAS       0.060700
     83 H27          8.9020     6.4160    -0.8160 hc         1 JAS       0.045700
     84 H381        11.5900     5.6920     0.4290 hc         1 JAS       0.035033
     85 H382        10.8400     5.0040    -1.0050 hc         1 JAS       0.035033
     86 H383        11.4110     6.6600    -1.0340 hc         1 JAS       0.035033
     87 H26         10.0070     8.4730    -0.2440 h1         1 JAS       0.025700
     88 H431         7.8740     9.0820    -0.8440 h1         1 JAS       0.027700
     89 H432         6.6300     9.0910     0.4160 h1         1 JAS       0.027700
     90 H433         7.0610     7.5760    -0.3870 h1         1 JAS       0.027700
     91 H251        10.6040     7.0770     2.3800 hc         1 JAS       0.065700
     92 H252        11.6590     7.9320     1.3130 hc         1 JAS       0.065700
     93 H24         11.4250     9.1100     3.3330 h1         1 JAS       0.057700
     94 H21          7.4290     9.5720     4.8470 hc         1 JAS       0.078700
     95 H22          7.1920     7.8870     4.4670 hc         1 JAS       0.078700
     96 H3           8.3020     7.2670     6.6380 h1         1 JAS       0.088700
     97 H41          5.8610     7.3200     6.2730 hc         1 JAS       0.052200
     98 H42          5.7770     8.9540     6.8980 hc         1 JAS       0.052200
     99 H5           6.4090     8.2840     9.0980 h1         1 JAS       0.063700
    100 HO4          7.9240     6.6880     8.8200 ho         1 JAS       0.453000
    101 H61          4.6010     6.0670     8.0700 hc         1 JAS       0.080700
    102 H62          4.0780     7.7220     8.1220 hc         1 JAS       0.080700
    103 H23          9.9500    10.5580     1.1020 hc         1 JAS       0.065700
    104 H371        12.2880     9.9580     0.5650 hc         1 JAS       0.036700
    105 H372        12.1540    11.6880     0.8340 hc         1 JAS       0.036700
    106 H373        12.8510    10.6550     2.0810 hc         1 JAS       0.036700
    107 H221         9.2510    11.6740     3.0720 hc         1 JAS       0.049200
    108 H222        10.4580    12.6370     2.2860 hc         1 JAS       0.049200
    109 H211        11.8440    12.6160     4.1200 hc         1 JAS       0.054700
    110 H212        11.7290    10.8890     4.3010 hc         1 JAS       0.054700
    111 H20          9.5080    11.1620     5.5120 ha         1 JAS       0.195000
    112 H19         11.0400    13.7440     6.0860 ha         1 JAS       0.195000
    113 H17          8.7320    14.8630     9.8780 h4         1 JAS       0.077100
    114 H14          5.0540    13.0960    12.1940 h4         1 JAS       0.079100
    115 H11          1.5270     9.8550    12.3390 h4         1 JAS       0.068100
    116 H9           1.0500     7.7340    10.5510 h1         1 JAS       0.037700
    117 H441         0.6340     8.8490     7.2060 h1         1 JAS       0.032367
    118 H442         1.0600     9.9320     8.5400 h1         1 JAS       0.032367
    119 H443        -0.1840     8.6910     8.7720 h1         1 JAS       0.032367
    120 H8           2.7920     6.5100    11.4050 hc         1 JAS       0.069700
    121 H361         2.8500     4.5020    10.0030 hc         1 JAS       0.042700
    122 H362         1.2630     5.2540     9.8950 hc         1 JAS       0.042700
    123 H363         2.4050     5.4180     8.5640 hc         1 JAS       0.042700
    124 HO1         11.6650     6.7870     4.4550 ho         1 JAS       0.476000
    125 HO2          8.0240     9.9880     7.3480 ho         1 JAS       0.464000
@<TRIPOS>BOND
     1     1     2 1   
     2     1   124 1   
     3     2     3 1   
     4     2    62 1   
     5     2    63 1   
     6     3     4 1   
     7     3     5 1   
     8     4    64 1   
     9     4    65 1   
    10     4    66 1   
    11     5     6 2   
    12     5    67 1   
    13     6     7 1   
    14     6    68 1   
    15     7     8 1   
    16     7    69 1   
    17     7    70 1   
    18     8     9 1   
    19     8    11 1   
    20     8    71 1   
    21     9    10 1   
    22    10    72 1   
    23    10    73 1   
    24    10    74 1   
    25    11    12 1   
    26    11    13 1   
    27    11    75 1   
    28    12    76 1   
    29    12    77 1   
    30    12    78 1   
    31    13    14 2   
    32    13    15 1   
    33    15    16 1   
    34    15    79 1   
    35    15    80 1   
    36    16    17 1   
    37    16    81 1   
    38    16    82 1   
    39    17    18 1   
    40    17    19 1   
    41    17    83 1   
    42    18    84 1   
    43    18    85 1   
    44    18    86 1   
    45    19    20 1   
    46    19    22 1   
    47    19    87 1   
    48    20    21 1   
    49    21    88 1   
    50    21    89 1   
    51    21    90 1   
    52    22    23 1   
    53    22    91 1   
    54    22    92 1   
    55    23    24 1   
    56    23    34 1   
    57    23    93 1   
    58    24    25 1   
    59    25    26 2   
    60    25    27 1   
    61    27    28 1   
    62    27    94 1   
    63    27    95 1   
    64    28    29 1   
    65    28    30 1   
    66    28    96 1   
    67    29   125 1   
    68    30    31 1   
    69    30    97 1   
    70    30    98 1   
    71    31    32 1   
    72    31    33 1   
    73    31    99 1   
    74    32   100 1   
    75    33    60 1   
    76    33   101 1   
    77    33   102 1   
    78    34    35 1   
    79    34    36 1   
    80    34   103 1   
    81    35   104 1   
    82    35   105 1   
    83    35   106 1   
    84    36    37 1   
    85    36   107 1   
    86    36   108 1   
    87    37    38 1   
    88    37   109 1   
    89    37   110 1   
    90    38    39 2   
    91    38   111 1   
    92    39    40 1   
    93    39   112 1   
    94    40    41 1   
    95    40    43 2   
    96    41    42 1   
    97    42    44 2   
    98    42   113 1   
    99    43    44 1   
   100    44    45 1   
   101    45    46 2   
   102    45    47 1   
   103    46    49 1   
   104    47    48 1   
   105    48    49 2   
   106    48   114 1   
   107    49    50 1   
   108    50    51 2   
   109    50    52 1   
   110    51    54 1   
   111    52    53 1   
   112    53    54 2   
   113    53   115 1   
   114    54    55 1   
   115    55    56 1   
   116    55    58 1   
   117    55   116 1   
   118    56    57 1   
   119    57   117 1   
   120    57   118 1   
   121    57   119 1   
   122    58    59 1   
   123    58    60 1   
   124    58   120 1   
   125    59   121 1   
   126    59   122 1   
   127    59   123 1   
   128    60    61 2   
@<TRIPOS>SUBSTRUCTURE
     1 JAS         1 TEMP              0 ****  ****    0 ROOT
