@<TRIPOS>MOLECULE
JAS
  125   128     1     0     0
SMALL
No Charge or Current Charge


@<TRIPOS>ATOM
      1 O13         11.4560     7.2010     5.7240 oh         1 JAS      -0.710000
      2 C40         10.9360     6.6750     6.9360 c3         1 JAS       0.431800
      3 N4          11.5320     5.3600     7.2170 nh         1 JAS      -0.689400
      4 C41         12.8690     5.3860     7.8480 c3         1 JAS       0.204100
      5 C35         10.9600     4.1470     6.8270 c2         1 JAS       0.005000
      6 C34          9.8580     4.0460     6.0670 c2         1 JAS      -0.316200
      7 C33          9.2170     2.7390     5.6250 c3         1 JAS      -0.050200
      8 C32          8.9250     2.6570     4.0950 c3         1 JAS       0.188300
      9 O12          8.1270     3.7950     3.7010 os         1 JAS      -0.463000
     10 C42          6.7540     3.7930     4.1360 c3         1 JAS       0.145900
     11 C31         10.1940     2.6720     3.2010 c3         1 JAS      -0.166700
     12 C39         11.0880     1.4170     3.3730 c3         1 JAS      -0.081100
     13 C30          9.8030     2.8440     1.7210 c          1 JAS       0.592100
     14 O11          8.9880     2.1090     1.1730 o          1 JAS      -0.527100
     15 C29         10.4670     3.9990     0.9540 c3         1 JAS      -0.177400
     16 C28          9.8280     5.3670     1.3100 c3         1 JAS      -0.065400
     17 C27         10.1350     6.5180     0.3030 c3         1 JAS      -0.090700
     18 C38         11.6440     6.6230    -0.0460 c3         1 JAS      -0.090100
     19 C26          9.5430     7.9070     0.7410 c3         1 JAS       0.181300
     20 O10          8.1550     7.7570     1.1100 os         1 JAS      -0.443000
     21 C43          7.2350     7.4840     0.0370 c3         1 JAS       0.144900
     22 C25         10.2830     8.5680     1.9440 c3         1 JAS      -0.098400
     23 C24          9.7760     9.9680     2.4170 c3         1 JAS       0.194300
     24 O2           8.5370     9.8200     3.1450 os         1 JAS      -0.433100
     25 C1           8.5730     9.2860     4.4090 c          1 JAS       0.624100
     26 O1           9.6090     9.0210     5.0050 o          1 JAS      -0.531000
     27 C2           7.2020     9.3770     5.0840 c3         1 JAS      -0.172400
     28 C3           6.8220     8.1160     5.8870 c3         1 JAS       0.179300
     29 O3           7.6390     8.0320     7.0570 oh         1 JAS      -0.667000
     30 C4           5.3340     8.1230     6.3170 c3         1 JAS      -0.144400
     31 C5           4.9230     6.9660     7.2600 c3         1 JAS       0.196300
     32 O4           5.2240     5.7180     6.6340 oh         1 JAS      -0.669000
     33 C6           3.4240     6.9890     7.6300 c3         1 JAS      -0.173400
     34 C23          9.5650    11.0250     1.2830 c3         1 JAS      -0.057700
     35 C37         10.8640    11.2730     0.4680 c3         1 JAS      -0.093100
     36 C22          8.9400    12.3730     1.7640 c3         1 JAS      -0.061400
     37 C21          9.7430    13.1900     2.8130 c3         1 JAS      -0.055200
     38 C20          9.6060    12.6570     4.2230 c2         1 JAS      -0.127200
     39 C19         10.6080    12.5000     5.1200 ce         1 JAS      -0.310800
     40 C18         10.4540    11.9580     6.4600 cc         1 JAS       0.515800
     41 O9          11.5360    11.8310     7.2830 os         1 JAS      -0.246000
     42 C17         11.0260    11.2550     8.4060 cc         1 JAS       0.141900
     43 N3           9.3130    11.5310     6.9690 nd         1 JAS      -0.652000
     44 C16          9.6850    11.0550     8.2140 cd         1 JAS       0.188000
     45 C15          8.8610    10.4150     9.2180 cd         1 JAS       0.428000
     46 N2           7.5650    10.1410     9.0600 nc         1 JAS      -0.603000
     47 O8           9.3930    10.0440    10.4290 os         1 JAS      -0.254000
     48 C14          8.3110     9.5290    11.0770 cd         1 JAS       0.143900
     49 C13          7.2170     9.5820    10.2640 cc         1 JAS       0.193000
     50 C12          5.9030     9.1220    10.6620 cc         1 JAS       0.427000
     51 N1           4.7910     9.1270     9.9370 nd         1 JAS      -0.628000
     52 O7           5.7300     8.6320    11.9270 os         1 JAS      -0.259000
     53 C11          4.4040     8.3350    11.9900 cc         1 JAS       0.117900
     54 C10          3.8200     8.6320    10.7880 cd         1 JAS       0.189300
     55 C9           2.3550     8.4570    10.3930 c3         1 JAS       0.166000
     56 O6           1.9640     9.4070     9.3750 os         1 JAS      -0.439000
     57 C44          1.8980    10.7820     9.8000 c3         1 JAS       0.145900
     58 C8           2.0240     7.0220     9.8850 c3         1 JAS      -0.159700
     59 C36          0.6310     6.9040     9.2080 c3         1 JAS      -0.077100
     60 C7           3.1430     6.3980     9.0210 c          1 JAS       0.599100
     61 O5           3.7480     5.4150     9.4310 o          1 JAS      -0.520100
     62 H401        11.1680     7.3610     7.7620 h2         1 JAS       0.053200
     63 H402         9.8460     6.5790     6.8650 h2         1 JAS       0.053200
     64 H411        13.1770     6.4110     8.0960 h1         1 JAS       0.030367
     65 H412        13.6170     4.9570     7.1680 h1         1 JAS       0.030367
     66 H413        12.8640     4.7950     8.7740 h1         1 JAS       0.030367
     67 H35         11.4830     3.2560     7.1850 h4         1 JAS       0.166000
     68 H34          9.3440     4.9290     5.6930 ha         1 JAS       0.192000
     69 H331         9.8470     1.8900     5.9160 hc         1 JAS       0.044200
     70 H332         8.2810     2.5890     6.1740 hc         1 JAS       0.044200
     71 H32          8.3770     1.7260     3.8920 h1         1 JAS       0.043700
     72 H421         6.2310     4.6720     3.7390 h1         1 JAS       0.030367
     73 H422         6.6810     3.8240     5.2290 h1         1 JAS       0.030367
     74 H423         6.2340     2.8960     3.7770 h1         1 JAS       0.030367
     75 H31         10.8110     3.5330     3.4830 hc         1 JAS       0.077700
     76 H391        10.5210     0.5010     3.1710 hc         1 JAS       0.039367
     77 H392        11.9370     1.4530     2.6790 hc         1 JAS       0.039367
     78 H393        11.4950     1.3550     4.3890 hc         1 JAS       0.039367
     79 H291        11.5180     4.0630     1.2590 hc         1 JAS       0.058200
     80 H292        10.3820     3.8150    -0.1240 hc         1 JAS       0.058200
     81 H281         8.7410     5.2340     1.3640 hc         1 JAS       0.060700
     82 H282        10.1510     5.6510     2.3190 hc         1 JAS       0.060700
     83 H27          9.6440     6.2510    -0.6400 hc         1 JAS       0.045700
     84 H381        12.2580     6.6970     0.8600 hc         1 JAS       0.035033
     85 H382        11.9800     5.7450    -0.6090 hc         1 JAS       0.035033
     86 H383        11.8380     7.5050    -0.6680 hc         1 JAS       0.035033
     87 H26          9.6270     8.5840    -0.1180 h1         1 JAS       0.025700
     88 H431         7.3150     8.2460    -0.7490 h1         1 JAS       0.027700
     89 H432         6.2040     7.4930     0.4140 h1         1 JAS       0.027700
     90 H433         7.4190     6.4990    -0.4080 h1         1 JAS       0.027700
     91 H251        10.2840     7.8740     2.7890 hc         1 JAS       0.065700
     92 H252        11.3380     8.6920     1.6780 hc         1 JAS       0.065700
     93 H24         10.5430    10.3780     3.0880 h1         1 JAS       0.057700
     94 H21          7.2030    10.2470     5.7480 hc         1 JAS       0.078700
     95 H22          6.4480     9.5670     4.3130 hc         1 JAS       0.078700
     96 H3           6.9910     7.2390     5.2430 h1         1 JAS       0.088700
     97 H41          4.7050     8.0940     5.4190 hc         1 JAS       0.052200
     98 H42          5.1150     9.0740     6.8200 hc         1 JAS       0.052200
     99 H5           5.5020     7.0710     8.1880 h1         1 JAS       0.063700
    100 HO4          6.1880     5.5820     6.7490 ho         1 JAS       0.453000
    101 H61          2.8350     6.4290     6.8970 hc         1 JAS       0.080700
    102 H62          3.0200     8.0040     7.5830 hc         1 JAS       0.080700
    103 H23          8.8340    10.6030     0.5830 hc         1 JAS       0.065700
    104 H371        11.1790    10.3690    -0.0650 hc         1 JAS       0.036700
    105 H372        10.7080    12.0560    -0.2830 hc         1 JAS       0.036700
    106 H373        11.6880    11.5830     1.1210 hc         1 JAS       0.036700
    107 H221         7.9290    12.1900     2.1500 hc         1 JAS       0.049200
    108 H222         8.7970    13.0100     0.8820 hc         1 JAS       0.049200
    109 H211         9.3710    14.2220     2.7960 hc         1 JAS       0.054700
    110 H212        10.7970    13.2490     2.5180 hc         1 JAS       0.054700
    111 H20          8.5820    12.3850     4.4960 ha         1 JAS       0.195000
    112 H19         11.6320    12.7690     4.8650 ha         1 JAS       0.195000
    113 H17         11.6960    11.0300     9.2240 h4         1 JAS       0.077100
    114 H14          8.4410     9.1660    12.0880 h4         1 JAS       0.079100
    115 H11          4.0110     7.9300    12.9130 h4         1 JAS       0.068100
    116 H9           1.7450     8.6280    11.2900 h1         1 JAS       0.037700
    117 H441         1.5710    11.4200     8.9690 h1         1 JAS       0.032367
    118 H442         2.8770    11.1430    10.1380 h1         1 JAS       0.032367
    119 H443         1.1800    10.9010    10.6220 h1         1 JAS       0.032367
    120 H8           1.9740     6.3990    10.7870 hc         1 JAS       0.069700
    121 H361         0.3980     5.8540     8.9920 hc         1 JAS       0.042700
    122 H362        -0.1530     7.2960     9.8660 hc         1 JAS       0.042700
    123 H363         0.5930     7.4580     8.2620 hc         1 JAS       0.042700
    124 HO1         10.8180     7.9160     5.4700 ho         1 JAS       0.476000
    125 HO2          7.4770     8.8510     7.5870 ho         1 JAS       0.464000
@<TRIPOS>BOND
     1     1     2 1   
     2     1   124 1   
     3     2     3 1   
     4     2    62 1   
     5     2    63 1   
     6     3     4 1   
     7     3     5 1   
     8     4    64 1   
     9     4    65 1   
    10     4    66 1   
    11     5     6 2   
    12     5    67 1   
    13     6     7 1   
    14     6    68 1   
    15     7     8 1   
    16     7    69 1   
    17     7    70 1   
    18     8     9 1   
    19     8    11 1   
    20     8    71 1   
    21     9    10 1   
    22    10    72 1   
    23    10    73 1   
    24    10    74 1   
    25    11    12 1   
    26    11    13 1   
    27    11    75 1   
    28    12    76 1   
    29    12    77 1   
    30    12    78 1   
    31    13    14 2   
    32    13    15 1   
    33    15    16 1   
    34    15    79 1   
    35    15    80 1   
    36    16    17 1   
    37    16    81 1   
    38    16    82 1   
    39    17    18 1   
    40    17    19 1   
    41    17    83 1   
    42    18    84 1   
    43    18    85 1   
    44    18    86 1   
    45    19    20 1   
    46    19    22 1   
    47    19    87 1   
    48    20    21 1   
    49    21    88 1   
    50    21    89 1   
    51    21    90 1   
    52    22    23 1   
    53    22    91 1   
    54    22    92 1   
    55    23    24 1   
    56    23    34 1   
    57    23    93 1   
    58    24    25 1   
    59    25    26 2   
    60    25    27 1   
    61    27    28 1   
    62    27    94 1   
    63    27    95 1   
    64    28    29 1   
    65    28    30 1   
    66    28    96 1   
    67    29   125 1   
    68    30    31 1   
    69    30    97 1   
    70    30    98 1   
    71    31    32 1   
    72    31    33 1   
    73    31    99 1   
    74    32   100 1   
    75    33    60 1   
    76    33   101 1   
    77    33   102 1   
    78    34    35 1   
    79    34    36 1   
    80    34   103 1   
    81    35   104 1   
    82    35   105 1   
    83    35   106 1   
    84    36    37 1   
    85    36   107 1   
    86    36   108 1   
    87    37    38 1   
    88    37   109 1   
    89    37   110 1   
    90    38    39 2   
    91    38   111 1   
    92    39    40 1   
    93    39   112 1   
    94    40    41 1   
    95    40    43 2   
    96    41    42 1   
    97    42    44 2   
    98    42   113 1   
    99    43    44 1   
   100    44    45 1   
   101    45    46 2   
   102    45    47 1   
   103    46    49 1   
   104    47    48 1   
   105    48    49 2   
   106    48   114 1   
   107    49    50 1   
   108    50    51 2   
   109    50    52 1   
   110    51    54 1   
   111    52    53 1   
   112    53    54 2   
   113    53   115 1   
   114    54    55 1   
   115    55    56 1   
   116    55    58 1   
   117    55   116 1   
   118    56    57 1   
   119    57   117 1   
   120    57   118 1   
   121    57   119 1   
   122    58    59 1   
   123    58    60 1   
   124    58   120 1   
   125    59   121 1   
   126    59   122 1   
   127    59   123 1   
   128    60    61 2   
@<TRIPOS>SUBSTRUCTURE
     1 JAS         1 TEMP              0 ****  ****    0 ROOT
