@<TRIPOS>MOLECULE
JAT
   23    23     1     0     0
SMALL
No Charge or Current Charge


@<TRIPOS>ATOM
      1 C11          3.3970     0.0160     0.6430 c3         1 JAT      -0.024100
      2 C01          1.8830     0.0030     0.4700 ca         1 JAT      -0.088300
      3 C02          1.1660     1.2100     0.3760 ca         1 JAT      -0.144000
      4 C03         -0.2300     1.2000     0.2110 ca         1 JAT      -0.029000
      5 C04         -0.9330    -0.0220     0.1420 ca         1 JAT      -0.211500
      6 C05         -0.2100    -1.2320     0.2260 ca         1 JAT      -0.029000
      7 C06          1.1860    -1.2170     0.3910 ca         1 JAT      -0.144000
      8 C12          4.1350     0.0200    -0.7140 c3         1 JAT       0.147800
      9 N13          5.6050     0.0280    -0.5490 n8         1 JAT      -1.010200
     10 O08         -3.1630    -1.2880     0.5870 o          1 JAT      -0.698200
     11 O09         -3.1830     1.2120     0.5710 o          1 JAT      -0.698200
     12 O10         -2.8800    -0.0490    -1.5550 o          1 JAT      -0.698200
     13 S07         -2.7740    -0.0390    -0.0870 s6         1 JAT       1.280100
     14 H1           3.7000     0.8980     1.2200 hc         1 JAT       0.040700
     15 H2           3.7150    -0.8570     1.2250 hc         1 JAT       0.040700
     16 H3           1.6910     2.1610     0.4270 ha         1 JAT       0.087500
     17 H4          -0.7640     2.1450     0.1360 ha         1 JAT       0.125500
     18 H5          -0.7290    -2.1860     0.1620 ha         1 JAT       0.125500
     19 H6           1.7260    -2.1580     0.4540 ha         1 JAT       0.087500
     20 H7           3.8480    -0.8730    -1.2880 h1         1 JAT       0.034200
     21 H8           3.8390     0.9090    -1.2880 h1         1 JAT       0.034200
     22 H9           5.8940    -0.8440    -0.0880 hn         1 JAT       0.385000
     23 H10          6.0450    -0.0330    -1.4760 hn         1 JAT       0.385000
@<TRIPOS>BOND
     1     1     2 1   
     2     1     8 1   
     3     1    14 1   
     4     1    15 1   
     5     2     3 ar  
     6     2     7 ar  
     7     3     4 ar  
     8     3    16 1   
     9     4     5 ar  
    10     4    17 1   
    11     5     6 ar  
    12     5    13 1   
    13     6     7 ar  
    14     6    18 1   
    15     7    19 1   
    16     8     9 1   
    17     8    20 1   
    18     8    21 1   
    19     9    22 1   
    20     9    23 1   
    21    10    13 1   
    22    11    13 1   
    23    12    13 1   
@<TRIPOS>SUBSTRUCTURE
     1 JAT         1 TEMP              0 ****  ****    0 ROOT
