@<TRIPOS>MOLECULE
JAT
   23    23     1     0     0
SMALL
abcg2


@<TRIPOS>ATOM
      1 C11          3.3930    -0.0950     0.6460 c3         1 JAT      -0.024100
      2 C01          1.8960    -0.0780     0.5300 ca         1 JAT      -0.088300
      3 C02          1.2130     1.1290     0.3960 ca         1 JAT      -0.144000
      4 C03         -0.1620     1.1600     0.2060 ca         1 JAT      -0.029000
      5 C04         -0.8900    -0.0220     0.1770 ca         1 JAT      -0.211500
      6 C05         -0.2260    -1.2300     0.3450 ca         1 JAT      -0.029000
      7 C06          1.1540    -1.2580     0.5000 ca         1 JAT      -0.144000
      8 C12          4.0630     0.0590    -0.7180 c3         1 JAT       0.147800
      9 N13          5.5060     0.1050    -0.5700 n8         1 JAT      -1.010200
     10 O08         -3.1880    -1.1110     0.6360 o          1 JAT      -0.698200
     11 O09         -3.0840     1.3350     0.2520 o          1 JAT      -0.698200
     12 O10         -2.6950    -0.2330    -1.6210 o          1 JAT      -0.698200
     13 S07         -2.6610    -0.0050    -0.1720 s6         1 JAT       1.280100
     14 H1           3.7400     0.7130     1.2940 hc         1 JAT       0.040700
     15 H2           3.7220    -1.0340     1.1030 hc         1 JAT       0.040700
     16 H3           1.7680     2.0610     0.4200 ha         1 JAT       0.087500
     17 H4          -0.6780     2.1070     0.1040 ha         1 JAT       0.125500
     18 H5          -0.7940    -2.1540     0.3410 ha         1 JAT       0.125500
     19 H6           1.6610    -2.2100     0.6190 ha         1 JAT       0.087500
     20 H7           3.6990    -0.7380    -1.3820 h1         1 JAT       0.034200
     21 H8           3.7350     1.0000    -1.1660 h1         1 JAT       0.034200
     22 H9           5.8540    -0.8000    -0.2840 hn         1 JAT       0.385000
     23 H10          5.9400     0.3040    -1.4610 hn         1 JAT       0.385000
@<TRIPOS>BOND
     1     1     2 1   
     2     1     8 1   
     3     1    14 1   
     4     1    15 1   
     5     2     3 ar  
     6     2     7 ar  
     7     3     4 ar  
     8     3    16 1   
     9     4     5 ar  
    10     4    17 1   
    11     5     6 ar  
    12     5    13 1   
    13     6     7 ar  
    14     6    18 1   
    15     7    19 1   
    16     8     9 1   
    17     8    20 1   
    18     8    21 1   
    19     9    22 1   
    20     9    23 1   
    21    10    13 1   
    22    11    13 1   
    23    12    13 1   
@<TRIPOS>SUBSTRUCTURE
     1 JAT         1 TEMP              0 ****  ****    0 ROOT
