@<TRIPOS>MOLECULE
JAU
   75    79     1     0     0
SMALL
No Charge or Current Charge


@<TRIPOS>ATOM
      1 C14        -48.5480    -2.5070   -21.4980 ca         1 JAU      -0.139000
      2 C11        -49.7670    -3.4990   -25.7830 c3         1 JAU      -0.478600
      3 C10        -51.8840    -4.4850   -24.1580 c3         1 JAU      -0.478600
      4 C13        -49.2050    -2.9700   -22.6470 ca         1 JAU      -0.038000
      5 C02        -53.8300     1.0420   -23.2110 ca         1 JAU      -0.120000
      6 C03        -54.8310     1.7520   -22.5290 ca         1 JAU       0.186900
      7 C05        -52.8790     0.3620   -22.4280 ca         1 JAU       0.434900
      8 C07        -50.7650    -1.0960   -22.5340 ca         1 JAU       0.369000
      9 C08        -50.3070    -2.2610   -23.1800 ca         1 JAU      -0.352500
     10 C15        -48.9810    -1.3320   -20.8720 ca         1 JAU      -0.062000
     11 C16        -50.0800    -0.6320   -21.3920 ca         1 JAU      -0.117000
     12 C18        -53.9400     1.0740   -20.5350 ca         1 JAU       0.423900
     13 C20        -53.2760     0.5600   -18.1080 ca         1 JAU       0.311000
     14 C21        -53.1970     1.2420   -16.8860 ca         1 JAU      -0.154000
     15 C22        -52.4790     0.7000   -15.8060 ca         1 JAU       0.140000
     16 C24        -51.8280    -0.5550   -15.9300 ca         1 JAU       0.244000
     17 C26        -51.1990    -2.5690   -14.5470 c6         1 JAU       0.191300
     18 C27        -50.9050    -2.8330   -13.0540 c6         1 JAU      -0.080900
     19 C28        -49.5030    -2.2910   -12.6310 c6         1 JAU       0.196500
     20 C30        -48.0090    -1.7900   -10.6650 c6         1 JAU       0.157300
     21 C31        -47.4680    -2.3680    -9.3190 c6         1 JAU       0.149800
     22 C33        -46.9700    -4.5040    -8.1640 c3         1 JAU       0.157100
     23 C34        -47.7130    -4.5150   -10.5530 c6         1 JAU       0.149800
     24 C35        -49.1700    -3.9900   -10.7710 c6         1 JAU       0.157300
     25 C36        -49.4480    -0.7790   -13.0140 c6         1 JAU      -0.080900
     26 C37        -49.7670    -0.5510   -14.5080 c6         1 JAU       0.191300
     27 C38        -51.9280    -1.2440   -17.1540 ca         1 JAU      -0.126000
     28 C39        -52.6480    -0.6940   -18.2310 ca         1 JAU      -0.120000
     29 N04        -54.8860     1.7740   -21.1820 nb         1 JAU      -0.266000
     30 N06        -51.8710    -0.3950   -23.0230 nu         1 JAU      -0.967900
     31 N17        -52.9400     0.3750   -21.0900 nb         1 JAU      -0.308000
     32 N19        -54.0040     1.1450   -19.1520 nu         1 JAU      -0.924900
     33 N25        -51.0880    -1.1240   -14.8600 nh         1 JAU      -0.768400
     34 N29        -49.2280    -2.5280   -11.1680 n3         1 JAU      -0.737600
     35 N32        -46.9880    -3.7850    -9.4570 n3         1 JAU      -0.723600
     36 O12        -52.0570    -1.9880   -25.3470 o          1 JAU      -0.561000
     37 P09        -51.1040    -2.9190   -24.6800 py         1 JAU       1.182500
     38 Cl2        -52.4350     1.6170   -14.2930 cl         1 JAU      -0.192000
     39 H1         -47.6990    -3.0570   -21.0970 ha         1 JAU       0.118000
     40 H2         -49.3280    -4.4260   -25.4010 hc         1 JAU       0.082200
     41 H3         -50.1830    -3.6810   -26.7790 hc         1 JAU       0.082200
     42 H4         -48.9940    -2.7260   -25.8480 hc         1 JAU       0.082200
     43 H5         -52.6850    -4.2630   -23.4450 hc         1 JAU       0.082200
     44 H6         -52.3040    -4.9910   -25.0340 hc         1 JAU       0.082200
     45 H7         -51.1410    -5.1320   -23.6810 hc         1 JAU       0.082200
     46 H8         -48.8480    -3.8830   -23.1190 ha         1 JAU       0.109000
     47 H9         -55.5990     2.3090   -23.0630 h4         1 JAU       0.036100
     48 H10        -48.4670    -0.9620   -19.9870 ha         1 JAU       0.117000
     49 H11        -50.3870     0.2870   -20.9040 ha         1 JAU       0.139000
     50 H12        -53.6860     2.2040   -16.7680 ha         1 JAU       0.129000
     51 H13        -52.2130    -2.9300   -14.7770 h1         1 JAU       0.035700
     52 H14        -50.4940    -3.1450   -15.1650 h1         1 JAU       0.035700
     53 H15        -51.6830    -2.3590   -12.4420 hc         1 JAU       0.056700
     54 H16        -50.9960    -3.9110   -12.8860 hc         1 JAU       0.056700
     55 H17        -48.7400    -2.8150   -13.2260 h1         1 JAU       0.015700
     56 H18        -47.1950    -1.8410   -11.4040 h1         1 JAU       0.043950
     57 H19        -48.2440    -0.7270   -10.5160 h1         1 JAU       0.043950
     58 H20        -46.6530    -1.7280    -8.9500 h1         1 JAU       0.045950
     59 H21        -48.2800    -2.3060    -8.5780 h1         1 JAU       0.045950
     60 H22        -46.3760    -3.9530    -7.4230 h1         1 JAU       0.029700
     61 H23        -47.9880    -4.6250    -7.7700 h1         1 JAU       0.029700
     62 H24        -46.5260    -5.5010    -8.2820 h1         1 JAU       0.029700
     63 H25        -47.7420    -5.5970   -10.3510 h1         1 JAU       0.045950
     64 H26        -47.1660    -4.3940   -11.4990 h1         1 JAU       0.045950
     65 H27        -49.7210    -4.1310    -9.8300 h1         1 JAU       0.043950
     66 H28        -49.6530    -4.6460   -11.5050 h1         1 JAU       0.043950
     67 H29        -48.4530    -0.3580   -12.8220 hc         1 JAU       0.056700
     68 H30        -50.1570    -0.2110   -12.3980 hc         1 JAU       0.056700
     69 H31        -48.9820    -1.0170   -15.1230 h1         1 JAU       0.035700
     70 H32        -49.7460     0.5280   -14.7160 h1         1 JAU       0.035700
     71 H33        -51.4420    -2.2070   -17.2790 ha         1 JAU       0.115000
     72 H34        -52.7240    -1.2610   -19.1520 ha         1 JAU       0.152000
     73 H35        -52.0700    -0.5610   -24.0130 hn         1 JAU       0.553000
     74 H36        -54.6650     1.8570   -18.8420 hn         1 JAU       0.515000
     75 Cl1        -53.7860     1.0230   -24.9770 cl         1 JAU      -0.156000
@<TRIPOS>BOND
     1     1     4 ar  
     2     1    10 ar  
     3     1    39 1   
     4     2    37 1   
     5     2    40 1   
     6     2    41 1   
     7     2    42 1   
     8     3    37 1   
     9     3    43 1   
    10     3    44 1   
    11     3    45 1   
    12     4     9 ar  
    13     4    46 1   
    14     5     6 ar  
    15     5     7 ar  
    16     5    75 1   
    17     6    29 ar  
    18     6    47 1   
    19     7    30 1   
    20     7    31 ar  
    21     8     9 ar  
    22     8    11 ar  
    23     8    30 1   
    24     9    37 1   
    25    10    11 ar  
    26    10    48 1   
    27    11    49 1   
    28    12    29 ar  
    29    12    31 ar  
    30    12    32 1   
    31    13    14 ar  
    32    13    28 ar  
    33    13    32 1   
    34    14    15 ar  
    35    14    50 1   
    36    15    16 ar  
    37    15    38 1   
    38    16    27 ar  
    39    16    33 1   
    40    17    18 1   
    41    17    33 1   
    42    17    51 1   
    43    17    52 1   
    44    18    19 1   
    45    18    53 1   
    46    18    54 1   
    47    19    25 1   
    48    19    34 1   
    49    19    55 1   
    50    20    21 1   
    51    20    34 1   
    52    20    56 1   
    53    20    57 1   
    54    21    35 1   
    55    21    58 1   
    56    21    59 1   
    57    22    35 1   
    58    22    60 1   
    59    22    61 1   
    60    22    62 1   
    61    23    24 1   
    62    23    35 1   
    63    23    63 1   
    64    23    64 1   
    65    24    34 1   
    66    24    65 1   
    67    24    66 1   
    68    25    26 1   
    69    25    67 1   
    70    25    68 1   
    71    26    33 1   
    72    26    69 1   
    73    26    70 1   
    74    27    28 ar  
    75    27    71 1   
    76    28    72 1   
    77    30    73 1   
    78    32    74 1   
    79    36    37 2   
@<TRIPOS>SUBSTRUCTURE
     1 JAU         1 TEMP              0 ****  ****    0 ROOT
