@<TRIPOS>MOLECULE
JAU
   75    79     1     0     0
SMALL
bcc


@<TRIPOS>ATOM
      1 C14        -48.8230    -2.9380   -21.0000 ca         1 JAU      -0.157000
      2 C11        -50.3770    -4.4720   -24.9410 c3         1 JAU      -0.320800
      3 C10        -52.8200    -3.3190   -23.9710 c3         1 JAU      -0.320800
      4 C13        -49.4360    -3.3110   -22.1860 ca         1 JAU      -0.056000
      5 C02        -53.2230     1.2360   -23.2570 ca         1 JAU      -0.342200
      6 C03        -54.2480     1.9060   -22.6290 ca         1 JAU       0.515200
      7 C05        -52.3940     0.4310   -22.4520 ca         1 JAU       0.763200
      8 C07        -50.5360    -1.1690   -22.3120 ca         1 JAU       0.230600
      9 C08        -50.3020    -2.4450   -22.8490 ca         1 JAU      -0.352500
     10 C15        -49.0530    -1.6710   -20.4820 ca         1 JAU      -0.080000
     11 C16        -49.8930    -0.7860   -21.1380 ca         1 JAU      -0.135000
     12 C18        -53.6210     1.0610   -20.6390 ca         1 JAU       0.949900
     13 C20        -53.1720     0.4190   -18.2560 ca         1 JAU       0.172600
     14 C21        -53.5250     0.8130   -16.9620 ca         1 JAU      -0.172000
     15 C22        -52.9020     0.2540   -15.8640 ca         1 JAU       0.048400
     16 C24        -51.8790    -0.6940   -15.9820 ca         1 JAU       0.105600
     17 C26        -50.7180    -2.5590   -14.9460 c6         1 JAU       0.191300
     18 C27        -50.4220    -3.1070   -13.5590 c6         1 JAU      -0.080900
     19 C28        -49.4360    -2.2220   -12.7940 c6         1 JAU       0.196500
     20 C30        -48.6220    -1.7880   -10.5220 c6         1 JAU       0.157300
     21 C31        -48.1120    -2.5020    -9.2850 c6         1 JAU       0.149800
     22 C33        -46.7450    -4.3400    -8.5990 c3         1 JAU       0.157100
     23 C34        -47.0350    -3.8510   -10.9650 c6         1 JAU       0.149800
     24 C35        -48.4720    -4.0180   -11.4420 c6         1 JAU       0.157300
     25 C36        -50.0060    -0.8040   -12.7740 c6         1 JAU      -0.080900
     26 C37        -50.3170    -0.3230   -14.1820 c6         1 JAU       0.191300
     27 C38        -51.5550    -1.0770   -17.2820 ca         1 JAU      -0.144000
     28 C39        -52.1870    -0.5570   -18.4010 ca         1 JAU      -0.138000
     29 N04        -54.4650     1.8360   -21.3260 nb         1 JAU      -0.792000
     30 N06        -51.3850    -0.2850   -22.9970 nu         1 JAU      -0.774300
     31 N17        -52.6190     0.3590   -21.1460 nb         1 JAU      -0.834000
     32 N19        -53.8620     1.0260   -19.3000 nu         1 JAU      -0.731300
     33 N25        -51.2620    -1.2190   -14.8390 nh         1 JAU      -0.630000
     34 N29        -49.2050    -2.7470   -11.4540 n3         1 JAU      -0.737600
     35 N32        -46.9570    -3.3260    -9.6040 n3         1 JAU      -0.723600
     36 O12        -51.0030    -1.8090   -25.4350 o          1 JAU      -0.790300
     37 P09        -51.1120    -2.9120   -24.4090 py         1 JAU       1.096200
     38 CL2        -53.4440     0.7370   -14.2890 cl         1 JAU      -0.100400
     39 H1         -48.1610    -3.6270   -20.4930 ha         1 JAU       0.136000
     40 H2         -50.5540    -5.2720   -24.2230 hc         1 JAU       0.082200
     41 H3         -50.8430    -4.7520   -25.8860 hc         1 JAU       0.082200
     42 H4         -49.3050    -4.3610   -25.1020 hc         1 JAU       0.082200
     43 H5         -53.3310    -2.4410   -23.5770 hc         1 JAU       0.082200
     44 H6         -53.3490    -3.6570   -24.8630 hc         1 JAU       0.082200
     45 H7         -52.8500    -4.1100   -23.2230 hc         1 JAU       0.082200
     46 H8         -49.2360    -4.2940   -22.5900 ha         1 JAU       0.127000
     47 H9         -54.9210     2.5300   -23.2080 h4         1 JAU       0.036100
     48 H10        -48.5660    -1.3600   -19.5680 ha         1 JAU       0.135000
     49 H11        -50.0450     0.2060   -20.7390 ha         1 JAU       0.157000
     50 H12        -54.3020     1.5520   -16.8130 ha         1 JAU       0.147000
     51 H13        -51.4460    -3.2010   -15.4450 h1         1 JAU       0.035700
     52 H14        -49.7970    -2.5830   -15.5500 h1         1 JAU       0.035700
     53 H15        -51.3520    -3.1680   -12.9870 hc         1 JAU       0.056700
     54 H16        -50.0440    -4.1250   -13.6700 hc         1 JAU       0.056700
     55 H17        -48.4900    -2.1830   -13.3700 h1         1 JAU       0.015700
     56 H18        -47.7900    -1.2100   -10.9590 h1         1 JAU       0.043950
     57 H19        -49.3760    -1.0600   -10.2170 h1         1 JAU       0.043950
     58 H20        -47.8420    -1.7640    -8.5240 h1         1 JAU       0.045950
     59 H21        -48.9410    -3.0960    -8.8630 h1         1 JAU       0.045950
     60 H22        -46.6230    -3.8700    -7.6210 h1         1 JAU       0.029700
     61 H23        -47.5720    -5.0640    -8.5120 h1         1 JAU       0.029700
     62 H24        -45.8310    -4.8990    -8.8090 h1         1 JAU       0.029700
     63 H25        -46.5150    -4.8090   -11.0140 h1         1 JAU       0.045950
     64 H26        -46.5080    -3.1820   -11.6550 h1         1 JAU       0.045950
     65 H27        -48.9850    -4.7450   -10.8010 h1         1 JAU       0.043950
     66 H28        -48.4570    -4.4550   -12.4410 h1         1 JAU       0.043950
     67 H29        -49.3030    -0.0990   -12.3290 hc         1 JAU       0.056700
     68 H30        -50.9200    -0.7830   -12.1720 hc         1 JAU       0.056700
     69 H31        -49.3840    -0.2590   -14.7630 h1         1 JAU       0.035700
     70 H32        -50.7300     0.6840   -14.1380 h1         1 JAU       0.035700
     71 H33        -50.7780    -1.8150   -17.4380 ha         1 JAU       0.133000
     72 H34        -51.8930    -0.9000   -19.3780 ha         1 JAU       0.170000
     73 H35        -51.3500    -0.3470   -24.0110 hn         1 JAU       0.497800
     74 H36        -54.6280     1.6240   -19.0260 hn         1 JAU       0.459800
     75 CL1        -52.9840     1.3680   -24.9610 cl         1 JAU      -0.064400
@<TRIPOS>BOND
     1     1     4 ar  
     2     1    10 ar  
     3     1    39 1   
     4     2    37 1   
     5     2    40 1   
     6     2    41 1   
     7     2    42 1   
     8     3    37 1   
     9     3    43 1   
    10     3    44 1   
    11     3    45 1   
    12     4     9 ar  
    13     4    46 1   
    14     5     6 ar  
    15     5     7 ar  
    16     5    75 1   
    17     6    29 ar  
    18     6    47 1   
    19     7    30 1   
    20     7    31 ar  
    21     8     9 ar  
    22     8    11 ar  
    23     8    30 1   
    24     9    37 1   
    25    10    11 ar  
    26    10    48 1   
    27    11    49 1   
    28    12    29 ar  
    29    12    31 ar  
    30    12    32 1   
    31    13    14 ar  
    32    13    28 ar  
    33    13    32 1   
    34    14    15 ar  
    35    14    50 1   
    36    15    16 ar  
    37    15    38 1   
    38    16    27 ar  
    39    16    33 1   
    40    17    18 1   
    41    17    33 1   
    42    17    51 1   
    43    17    52 1   
    44    18    19 1   
    45    18    53 1   
    46    18    54 1   
    47    19    25 1   
    48    19    34 1   
    49    19    55 1   
    50    20    21 1   
    51    20    34 1   
    52    20    56 1   
    53    20    57 1   
    54    21    35 1   
    55    21    58 1   
    56    21    59 1   
    57    22    35 1   
    58    22    60 1   
    59    22    61 1   
    60    22    62 1   
    61    23    24 1   
    62    23    35 1   
    63    23    63 1   
    64    23    64 1   
    65    24    34 1   
    66    24    65 1   
    67    24    66 1   
    68    25    26 1   
    69    25    67 1   
    70    25    68 1   
    71    26    33 1   
    72    26    69 1   
    73    26    70 1   
    74    27    28 ar  
    75    27    71 1   
    76    28    72 1   
    77    30    73 1   
    78    32    74 1   
    79    36    37 2   
@<TRIPOS>SUBSTRUCTURE
     1 JAU         1 TEMP              0 ****  ****    0 ROOT
