@<TRIPOS>MOLECULE
JAV
   45    47     1     0     0
SMALL
No Charge or Current Charge


@<TRIPOS>ATOM
      1 C16         -2.6910     0.0340     0.7640 ca         1 JAV      -0.275500
      2 C17         -1.8650     0.0050     1.9090 ca         1 JAV      -0.055000
      3 C18         -1.0530     1.1100     2.2210 ca         1 JAV      -0.091000
      4 C19         -1.0640     2.2510     1.3990 ca         1 JAV      -0.157000
      5 C20         -1.8910     2.2900     0.2640 ca         1 JAV       0.127100
      6 C21         -2.6980     1.1850    -0.0570 ca         1 JAV      -0.068000
      7 C02          3.6610    -1.4750     0.0460 ca         1 JAV      -0.118300
      8 C03          3.5790    -0.0990    -0.2340 ca         1 JAV      -0.059000
      9 C04          2.3330     0.5320    -0.4520 cp         1 JAV      -0.050000
     10 C05          1.1630    -0.2610    -0.3850 ca         1 JAV      -0.058000
     11 C06          1.2170    -1.6470    -0.1000 ca         1 JAV      -0.199600
     12 C07          2.4790    -2.2420     0.1180 ca         1 JAV       0.221000
     13 C09         -0.0520    -2.4570     0.0190 c          1 JAV       0.643700
     14 C23          2.2480     2.0000    -0.7270 cp         1 JAV      -0.035000
     15 C24          3.1080     2.9180    -0.0720 ca         1 JAV      -0.099500
     16 C25          3.0250     4.2980    -0.3250 ca         1 JAV      -0.109000
     17 C26          2.0820     4.7900    -1.2410 ca         1 JAV      -0.102000
     18 C27          1.2210     3.9000    -1.9020 ca         1 JAV      -0.109000
     19 C28          1.3020     2.5200    -1.6460 ca         1 JAV      -0.099500
     20 F08          2.5810    -3.5670     0.3730 f          1 JAV      -0.158000
     21 N11         -1.1540    -1.9440    -0.6600 ns         1 JAV      -0.383300
     22 N12         -2.5210    -2.3780    -0.4340 n7         1 JAV      -0.576300
     23 O10         -0.1430    -3.4570     0.7190 o          1 JAV      -0.504100
     24 O14         -4.0880    -2.1310     1.5430 o          1 JAV      -0.510000
     25 O15         -4.6370    -1.0320    -0.7220 o          1 JAV      -0.510000
     26 O22         -1.9090     3.3960    -0.5330 oh         1 JAV      -0.526100
     27 S13         -3.6860    -1.4170     0.3260 sy         1 JAV       1.125600
     28 H1          -1.8370    -0.8770     2.5480 ha         1 JAV       0.148000
     29 H2          -0.4110     1.0790     3.0990 ha         1 JAV       0.122000
     30 H3          -0.4290     3.0980     1.6490 ha         1 JAV       0.118000
     31 H4          -3.3230     1.2290    -0.9470 ha         1 JAV       0.147000
     32 H5           5.2090    -2.9110    -0.4740 hc         1 JAV       0.051700
     33 H6           5.8410    -1.4020     0.1970 hc         1 JAV       0.051700
     34 H7           5.0780    -2.5880     1.2630 hc         1 JAV       0.051700
     35 H8           4.4920     0.4880    -0.2930 ha         1 JAV       0.122000
     36 H9           0.2040     0.2340    -0.5110 ha         1 JAV       0.124000
     37 H10          3.8370     2.5580     0.6500 ha         1 JAV       0.113000
     38 H11          3.6920     4.9860     0.1910 ha         1 JAV       0.114000
     39 H12          2.0190     5.8580    -1.4380 ha         1 JAV       0.116000
     40 H13          0.4920     4.2780    -2.6160 ha         1 JAV       0.114000
     41 H14          0.6320     1.8470    -2.1750 ha         1 JAV       0.113000
     42 H15         -0.9610    -1.1320    -1.2420 hn         1 JAV       0.324500
     43 H16         -2.9920    -2.7950    -1.2410 hn         1 JAV       0.479000
     44 H17         -1.2620     4.0430    -0.1800 ho         1 JAV       0.471000
     45 C01          5.0220    -2.1270     0.2700 c3         1 JAV      -0.042800
@<TRIPOS>BOND
     1     1     2 ar  
     2     1     6 ar  
     3     1    27 1   
     4     2     3 ar  
     5     2    28 1   
     6     3     4 ar  
     7     3    29 1   
     8     4     5 ar  
     9     4    30 1   
    10     5     6 ar  
    11     5    26 1   
    12     6    31 1   
    13     7     8 ar  
    14     7    12 ar  
    15     7    45 1   
    16     8     9 ar  
    17     8    35 1   
    18     9    10 ar  
    19     9    14 1   
    20    10    11 ar  
    21    10    36 1   
    22    11    12 ar  
    23    11    13 1   
    24    12    20 1   
    25    13    21 1   
    26    13    23 2   
    27    14    15 ar  
    28    14    19 ar  
    29    15    16 ar  
    30    15    37 1   
    31    16    17 ar  
    32    16    38 1   
    33    17    18 ar  
    34    17    39 1   
    35    18    19 ar  
    36    18    40 1   
    37    19    41 1   
    38    21    22 1   
    39    21    42 1   
    40    22    27 1   
    41    22    43 1   
    42    24    27 2   
    43    25    27 2   
    44    26    44 1   
    45    32    45 1   
    46    33    45 1   
    47    34    45 1   
@<TRIPOS>SUBSTRUCTURE
     1 JAV         1 TEMP              0 ****  ****    0 ROOT
