@<TRIPOS>MOLECULE
JAV
   45    47     1     0     0
SMALL
bcc


@<TRIPOS>ATOM
      1 C16         -2.9790     0.3520     0.3120 ca         1 JAV      -0.275500
      2 C17         -2.0970     1.3020     0.8080 ca         1 JAV      -0.073000
      3 C18         -2.0840     2.5520     0.2050 ca         1 JAV      -0.109000
      4 C19         -2.9210     2.8400    -0.8590 ca         1 JAV      -0.175000
      5 C20         -3.8010     1.8710    -1.3430 ca         1 JAV       0.127100
      6 C21         -3.8330     0.6130    -0.7500 ca         1 JAV      -0.086000
      7 C02          3.8800    -1.7160    -0.5080 ca         1 JAV      -0.118300
      8 C03          3.9230    -0.3480    -0.2670 ca         1 JAV      -0.077000
      9 C04          2.8040     0.3740     0.1470 cp         1 JAV      -0.050000
     10 C05          1.6060    -0.3100     0.3180 ca         1 JAV      -0.076000
     11 C06          1.5230    -1.6800     0.0910 ca         1 JAV      -0.199600
     12 C07          2.6640    -2.3530    -0.3120 ca         1 JAV       0.185900
     13 C09          0.2420    -2.4050     0.3390 c          1 JAV       0.710700
     14 C23          2.8810     1.8260     0.3980 cp         1 JAV      -0.035000
     15 C24          4.0040     2.3900     1.0030 ca         1 JAV      -0.117500
     16 C25          4.0700     3.7550     1.2430 ca         1 JAV      -0.127000
     17 C26          3.0130     4.5800     0.8830 ca         1 JAV      -0.120000
     18 C27          1.8900     4.0300     0.2770 ca         1 JAV      -0.127000
     19 C28          1.8260     2.6660     0.0360 ca         1 JAV      -0.117500
     20 F08          2.5880    -3.6670    -0.5550 f          1 JAV      -0.122900
     21 N11         -0.8200    -1.7760    -0.2380 ns         1 JAV      -0.450300
     22 N12         -2.0910    -2.2230    -0.0270 n7         1 JAV      -0.521100
     23 O10          0.1560    -3.4170     0.9940 o          1 JAV      -0.504100
     24 O14         -2.2650    -1.2260     2.2680 o          1 JAV      -0.580800
     25 O15         -4.3370    -1.8230     0.9520 o          1 JAV      -0.580800
     26 O22         -4.6380     2.0950    -2.3660 oh         1 JAV      -0.487100
     27 S13         -2.9970    -1.2720     1.0180 sy         1 JAV       1.267200
     28 H1          -1.4530     1.0940     1.6510 ha         1 JAV       0.166000
     29 H2          -1.4160     3.3170     0.5780 ha         1 JAV       0.140000
     30 H3          -2.8950     3.8240    -1.3110 ha         1 JAV       0.136000
     31 H4          -4.5220    -0.1350    -1.1210 ha         1 JAV       0.165000
     32 H5           4.9230    -2.9010    -1.9720 hc         1 JAV       0.051700
     33 H6           5.9490    -1.8190    -1.0350 hc         1 JAV       0.051700
     34 H7           5.3300    -3.2980    -0.3090 hc         1 JAV       0.051700
     35 H8           4.8600     0.1700    -0.4300 ha         1 JAV       0.140000
     36 H9           0.7330     0.2180     0.6810 ha         1 JAV       0.142000
     37 H10          4.8290     1.7570     1.3090 ha         1 JAV       0.131000
     38 H11          4.9470     4.1720     1.7180 ha         1 JAV       0.132000
     39 H12          3.0630     5.6440     1.0710 ha         1 JAV       0.134000
     40 H13          1.0650     4.6670    -0.0180 ha         1 JAV       0.132000
     41 H14          0.9560     2.2570    -0.4640 ha         1 JAV       0.131000
     42 H15         -0.6730    -1.0360    -0.9120 hn         1 JAV       0.324500
     43 H16         -2.5830    -2.4970    -0.8730 hn         1 JAV       0.423800
     44 H17         -4.5500     2.9990    -2.6890 ho         1 JAV       0.432000
     45 C01          5.0820    -2.4750    -0.9800 c3         1 JAV      -0.042800
@<TRIPOS>BOND
     1     1     2 ar  
     2     1     6 ar  
     3     1    27 1   
     4     2     3 ar  
     5     2    28 1   
     6     3     4 ar  
     7     3    29 1   
     8     4     5 ar  
     9     4    30 1   
    10     5     6 ar  
    11     5    26 1   
    12     6    31 1   
    13     7     8 ar  
    14     7    12 ar  
    15     7    45 1   
    16     8     9 ar  
    17     8    35 1   
    18     9    10 ar  
    19     9    14 1   
    20    10    11 ar  
    21    10    36 1   
    22    11    12 ar  
    23    11    13 1   
    24    12    20 1   
    25    13    21 1   
    26    13    23 2   
    27    14    15 ar  
    28    14    19 ar  
    29    15    16 ar  
    30    15    37 1   
    31    16    17 ar  
    32    16    38 1   
    33    17    18 ar  
    34    17    39 1   
    35    18    19 ar  
    36    18    40 1   
    37    19    41 1   
    38    21    22 1   
    39    21    42 1   
    40    22    27 1   
    41    22    43 1   
    42    24    27 2   
    43    25    27 2   
    44    26    44 1   
    45    32    45 1   
    46    33    45 1   
    47    34    45 1   
@<TRIPOS>SUBSTRUCTURE
     1 JAV         1 TEMP              0 ****  ****    0 ROOT
