@<TRIPOS>MOLECULE
JAW
   20    21     1     0     0
SMALL
No Charge or Current Charge


@<TRIPOS>ATOM
      1 C10         -2.3240     1.4420    -0.0420 cc         1 JAW      -0.224200
      2 N01          3.5500    -0.6820     0.0210 nt         1 JAW      -0.608000
      3 C02          2.6410     0.3150     0.0010 c          1 JAW       0.623700
      4 O03          3.0300     1.4710    -0.0140 o          1 JAW      -0.618100
      5 C04          1.1760    -0.0530    -0.0010 ca         1 JAW      -0.189600
      6 C05          0.7380    -1.4100     0.0170 ca         1 JAW      -0.067000
      7 C06         -0.6380    -1.7250     0.0140 ca         1 JAW      -0.140000
      8 C07         -1.5620    -0.6740    -0.0060 ca         1 JAW      -0.032200
      9 N08         -2.9450    -0.7550    -0.0130 na         1 JAW      -0.221700
     10 C09         -3.4170     0.5830    -0.0350 cd         1 JAW      -0.168100
     11 C11         -1.1490     0.6250    -0.0240 ca         1 JAW      -0.116800
     12 C12          0.2060     0.9810    -0.0220 ca         1 JAW       0.008000
     13 H1          -2.3720     2.5300    -0.0580 ha         1 JAW       0.210000
     14 H2           3.2480    -1.6440     0.0340 hn         1 JAW       0.311500
     15 H3           4.5320    -0.4510     0.0230 hn         1 JAW       0.311500
     16 H4           1.4520    -2.2290     0.0330 ha         1 JAW       0.101000
     17 H5          -0.9710    -2.7610     0.0280 ha         1 JAW       0.115000
     18 H6          -3.5060    -1.6020    -0.0030 hn         1 JAW       0.350000
     19 H7          -4.4790     0.8180    -0.0440 h4         1 JAW       0.213000
     20 H8           0.4960     2.0300    -0.0360 ha         1 JAW       0.142000
@<TRIPOS>BOND
     1     1    10 2   
     2     1    11 1   
     3     1    13 1   
     4     2     3 1   
     5     2    14 1   
     6     2    15 1   
     7     3     4 2   
     8     3     5 1   
     9     5     6 ar  
    10     5    12 ar  
    11     6     7 ar  
    12     6    16 1   
    13     7     8 ar  
    14     7    17 1   
    15     8     9 1   
    16     8    11 ar  
    17     9    10 1   
    18     9    18 1   
    19    10    19 1   
    20    11    12 ar  
    21    12    20 1   
@<TRIPOS>SUBSTRUCTURE
     1 JAW         1 TEMP              0 ****  ****    0 ROOT
