@<TRIPOS>MOLECULE
JAX
   26    27     1     0     0
SMALL
No Charge or Current Charge


@<TRIPOS>ATOM
      1 C11          3.3210   -32.8940    14.3890 ca         1 JAX      -0.048200
      2 C12          2.1620   -32.5350    15.0180 ca         1 JAX      -0.071800
      3 C15          4.6080   -31.8260    16.1230 ca         1 JAX      -0.106000
      4 C16          4.5750   -32.5560    14.9140 ca         1 JAX      -0.149000
      5 C02         -1.0890   -33.7710    15.2350 ce         1 JAX       0.036900
      6 C03         -0.6070   -35.0870    15.8720 c          1 JAX       0.682200
      7 C07         -0.9440   -31.6140    13.9290 c3         1 JAX      -0.012900
      8 C08          1.0890   -33.0410    14.1960 cd         1 JAX       0.019800
      9 C09          1.6140   -33.7050    13.0940 cc         1 JAX      -0.183100
     10 C13          2.1540   -31.8100    16.2170 ca         1 JAX      -0.028000
     11 C14          3.4040   -31.4550    16.7710 ca         1 JAX      -0.172000
     12 N10          3.0160   -33.5950    13.2340 na         1 JAX      -0.239700
     13 O01         -2.4180   -33.5100    15.4570 oh         1 JAX      -0.597100
     14 O04          0.5510   -35.4620    15.7580 o          1 JAX      -0.696500
     15 O05         -1.4510   -35.7260    16.4910 o          1 JAX      -0.696500
     16 H1           5.5650   -31.5470    16.5580 ha         1 JAX       0.086000
     17 H2           5.4930   -32.8450    14.4090 ha         1 JAX       0.092000
     18 H3          -1.3560   -30.9790    14.7240 hc         1 JAX       0.013700
     19 H4          -0.2040   -31.0130    13.3860 hc         1 JAX       0.013700
     20 H5          -1.7550   -31.8420    13.2270 hc         1 JAX       0.013700
     21 H6           1.1280   -34.2160    12.2700 h4         1 JAX       0.201000
     22 H7           1.2210   -31.5330    16.7000 ha         1 JAX       0.120000
     23 H8           3.4410   -30.8930    17.7010 ha         1 JAX       0.093000
     24 H9           3.7030   -33.9760    12.5910 hn         1 JAX       0.329000
     25 H10         -2.7130   -34.2850    15.9980 ho         1 JAX       0.498000
     26 C06         -0.3340   -32.8880    14.5010 cf         1 JAX      -0.199200
@<TRIPOS>BOND
     1     1     2 ar  
     2     1     4 ar  
     3     1    12 1   
     4     2     8 1   
     5     2    10 ar  
     6     3     4 ar  
     7     3    11 ar  
     8     3    16 1   
     9     4    17 1   
    10     5     6 1   
    11     5    13 1   
    12     5    26 2   
    13     6    14 1   
    14     6    15 1   
    15     7    18 1   
    16     7    19 1   
    17     7    20 1   
    18     7    26 1   
    19     8     9 2   
    20     8    26 1   
    21     9    12 1   
    22     9    21 1   
    23    10    11 ar  
    24    10    22 1   
    25    11    23 1   
    26    12    24 1   
    27    13    25 1   
@<TRIPOS>SUBSTRUCTURE
     1 JAX         1 TEMP              0 ****  ****    0 ROOT
