@<TRIPOS>MOLECULE
JAX
   26    27     1     0     0
SMALL
bcc


@<TRIPOS>ATOM
      1 C11          3.3420   -32.8770    14.3320 ca         1 JAX      -0.048200
      2 C12          2.1500   -32.5860    15.0340 ca         1 JAX      -0.071800
      3 C15          4.6460   -31.8770    16.0450 ca         1 JAX      -0.124000
      4 C16          4.5980   -32.5300    14.8280 ca         1 JAX      -0.167000
      5 C02         -1.1080   -33.7100    15.2990 ce         1 JAX       0.036900
      6 C03         -0.6530   -34.9610    16.0540 c          1 JAX       0.892800
      7 C07         -0.9880   -31.7030    13.8340 c3         1 JAX      -0.012900
      8 C08          1.0580   -33.0840    14.2480 cd         1 JAX       0.019800
      9 C09          1.6220   -33.6190    13.1260 cc         1 JAX      -0.133100
     10 C13          2.2310   -31.9290    16.2650 ca         1 JAX      -0.046000
     11 C14          3.4730   -31.5770    16.7590 ca         1 JAX      -0.190000
     12 N10          2.9870   -33.5100    13.1780 na         1 JAX      -0.189400
     13 O01         -2.4240   -33.4870    15.5100 oh         1 JAX      -0.558100
     14 O04          0.5210   -35.3360    16.0140 o          1 JAX      -0.801800
     15 O05         -1.6090   -35.4990    16.6740 o          1 JAX      -0.801800
     16 H1           5.6060   -31.5930    16.4570 ha         1 JAX       0.104000
     17 H2           5.5030   -32.7620    14.2800 ha         1 JAX       0.110000
     18 H3          -2.0280   -31.5340    14.1060 hc         1 JAX       0.013700
     19 H4          -0.4280   -30.7960    14.0800 hc         1 JAX       0.013700
     20 H5          -0.9390   -31.8050    12.7470 hc         1 JAX       0.013700
     21 H6           1.1440   -34.0860    12.2780 h4         1 JAX       0.151000
     22 H7           1.3300   -31.6990    16.8210 ha         1 JAX       0.138000
     23 H8           3.5490   -31.0640    17.7090 ha         1 JAX       0.111000
     24 H9           3.6210   -33.8330    12.4670 hn         1 JAX       0.278700
     25 H10         -2.6480   -34.2440    16.1010 ho         1 JAX       0.459000
     26 C06         -0.3800   -32.9020    14.5130 cf         1 JAX      -0.199200
@<TRIPOS>BOND
     1     1     2 ar  
     2     1     4 ar  
     3     1    12 1   
     4     2     8 1   
     5     2    10 ar  
     6     3     4 ar  
     7     3    11 ar  
     8     3    16 1   
     9     4    17 1   
    10     5     6 1   
    11     5    13 1   
    12     5    26 2   
    13     6    14 1   
    14     6    15 1   
    15     7    18 1   
    16     7    19 1   
    17     7    20 1   
    18     7    26 1   
    19     8     9 2   
    20     8    26 1   
    21     9    12 1   
    22     9    21 1   
    23    10    11 ar  
    24    10    22 1   
    25    11    23 1   
    26    12    24 1   
    27    13    25 1   
@<TRIPOS>SUBSTRUCTURE
     1 JAX         1 TEMP              0 ****  ****    0 ROOT
