@<TRIPOS>MOLECULE
JAY
   77    83     1     0     0
SMALL
No Charge or Current Charge


@<TRIPOS>ATOM
      1 FAS         -5.9110     1.3240    -0.2890 f          1 JAY      -0.176000
      2 CAN         -5.0990     0.8740    -1.2690 ca         1 JAY       0.193000
      3 CAO         -5.3340     1.3280    -2.5770 ca         1 JAY      -0.153000
      4 CAP         -4.5280     0.8880    -3.6380 ca         1 JAY      -0.075000
      5 CAQ         -3.4860    -0.0170    -3.3870 ca         1 JAY      -0.126000
      6 CAR         -3.2470    -0.4750    -2.0810 ca         1 JAY      -0.074000
      7 CAL         -4.0410    -0.0290    -1.0000 ca         1 JAY      -0.180300
      8 CAH         -3.7160    -0.5690     0.4020 c6         1 JAY       0.460200
      9 NAG         -4.4890    -1.7750     0.6290 nu         1 JAY      -0.959200
     10 CAE         -5.7520    -1.7610     1.1780 ca         1 JAY       0.335000
     11 CAD         -6.6640    -2.7850     0.8880 ca         1 JAY      -0.196000
     12 CAC         -7.9400    -2.7760     1.4750 ca         1 JAY      -0.047000
     13 CAB         -8.2910    -1.7410     2.3580 ca         1 JAY      -0.171000
     14 CAA         -7.3700    -0.7190     2.6480 ca         1 JAY      -0.013000
     15 CAF         -6.0940    -0.7300     2.0460 ca         1 JAY      -0.217600
     16 CAJ         -5.0840     0.3340     2.3240 c          1 JAY       0.589600
     17 OAK         -5.2650     1.1400     3.2290 o          1 JAY      -0.556000
     18 NAI         -3.9160     0.3640     1.5320 n          1 JAY      -0.422800
     19 CAM         -2.8290     1.3600     1.8300 c6         1 JAY       0.142700
     20 CAT         -1.8280     0.8290     2.8850 c6         1 JAY      -0.092900
     21 CAU         -0.7240    -0.0570     2.2730 c6         1 JAY       0.164300
     22 CAX         -2.0520     1.9710     0.6240 c6         1 JAY      -0.092900
     23 CAW         -0.8580     1.1210     0.1160 c6         1 JAY       0.164300
     24 NAV          0.0330     0.6750     1.2240 n3         1 JAY      -0.720600
     25 CAY          1.2120    -0.1000     0.7540 c3         1 JAY       0.148800
     26 CAZ          2.1850     0.6730    -0.1680 c3         1 JAY       0.103000
     27 NBA          3.4170    -0.0920    -0.4800 n          1 JAY      -0.419800
     28 CBB          3.5010    -0.8440    -1.6660 c          1 JAY       0.591600
     29 OBR          2.5740    -0.8820    -2.4660 o          1 JAY      -0.563000
     30 CBC          4.7490    -1.6290    -1.9030 ca         1 JAY      -0.216600
     31 CBN          4.9680    -2.3220    -3.1130 ca         1 JAY      -0.017000
     32 CBO          6.1550    -3.0520    -3.2980 ca         1 JAY      -0.167000
     33 CBP          7.1210    -3.0970    -2.2800 ca         1 JAY      -0.046000
     34 CBQ          6.8930    -2.4100    -1.0750 ca         1 JAY      -0.185000
     35 CBD          5.7090    -1.6820    -0.8950 ca         1 JAY       0.330000
     36 NBE          5.4790    -1.0120     0.2900 nu         1 JAY      -0.939200
     37 CBF          4.5580     0.1040     0.4220 c6         1 JAY       0.455200
     38 CBG          5.2790     1.4290     0.1610 ca         1 JAY      -0.191300
     39 CBH          5.3610     2.4020     1.1780 ca         1 JAY       0.172000
     40 FBM          4.8120     2.1720     2.3920 f          1 JAY      -0.189000
     41 CBI          6.0090     3.6260     0.9490 ca         1 JAY      -0.149000
     42 CBJ          6.5830     3.8960    -0.3030 ca         1 JAY      -0.075000
     43 CBK          6.5060     2.9360    -1.3260 ca         1 JAY      -0.125000
     44 CBL          5.8570     1.7100    -1.0980 ca         1 JAY      -0.056000
     45 H1          -6.1480     2.0240    -2.7660 ha         1 JAY       0.134000
     46 H2          -4.7140     1.2410    -4.6500 ha         1 JAY       0.120000
     47 H3          -2.8620    -0.3660    -4.2070 ha         1 JAY       0.120000
     48 H4          -2.4370    -1.1810    -1.9090 ha         1 JAY       0.113000
     49 H5          -2.6530    -0.8480     0.4030 h2         1 JAY       0.087700
     50 H6          -4.3110    -2.5490    -0.0080 hn         1 JAY       0.488000
     51 H7          -6.3870    -3.5880     0.2110 ha         1 JAY       0.113000
     52 H8          -8.6510    -3.5690     1.2510 ha         1 JAY       0.111000
     53 H9          -9.2760    -1.7300     2.8180 ha         1 JAY       0.118000
     54 H10         -7.6520     0.0800     3.3330 ha         1 JAY       0.134000
     55 H11         -3.3280     2.2240     2.2930 h1         1 JAY       0.071700
     56 H12         -1.3500     1.6830     3.3840 hc         1 JAY       0.059950
     57 H13         -2.3590     0.2780     3.6720 hc         1 JAY       0.059950
     58 H14         -0.0430    -0.3640     3.0810 h1         1 JAY       0.035450
     59 H15         -1.1660    -0.9780     1.8660 h1         1 JAY       0.035450
     60 H16         -2.7330     2.2120    -0.2000 hc         1 JAY       0.059950
     61 H17         -1.6440     2.9380     0.9490 hc         1 JAY       0.059950
     62 H18         -1.2170     0.2540    -0.4500 h1         1 JAY       0.035450
     63 H19         -0.2980     1.7400    -0.5990 h1         1 JAY       0.035450
     64 H21          1.7890    -0.4370     1.6260 h1         1 JAY       0.043200
     65 H22          0.8800    -1.0050     0.2260 h1         1 JAY       0.043200
     66 H23          1.6760     0.9510    -1.0980 h1         1 JAY       0.061700
     67 H24          2.4650     1.6090     0.3330 h1         1 JAY       0.061700
     68 H25          4.2260    -2.2930    -3.9090 ha         1 JAY       0.132000
     69 H26          6.3260    -3.5830    -4.2320 ha         1 JAY       0.119000
     70 H27          8.0400    -3.6620    -2.4220 ha         1 JAY       0.112000
     71 H28          7.6380    -2.4470    -0.2850 ha         1 JAY       0.117000
     72 H29          6.2340    -1.0610     0.9720 hn         1 JAY       0.487000
     73 H30          4.1560     0.1230     1.4480 h2         1 JAY       0.086700
     74 H31          6.0630     4.3660     1.7440 ha         1 JAY       0.134000
     75 H32          7.0860     4.8450    -0.4820 ha         1 JAY       0.121000
     76 H33          6.9490     3.1420    -2.2980 ha         1 JAY       0.123000
     77 H34          5.8060     0.9810    -1.9030 ha         1 JAY       0.129000
@<TRIPOS>BOND
     1     1     2 1   
     2     2     3 ar  
     3     2     7 ar  
     4     3     4 ar  
     5     3    45 1   
     6     4     5 ar  
     7     4    46 1   
     8     5     6 ar  
     9     5    47 1   
    10     6     7 ar  
    11     6    48 1   
    12     7     8 1   
    13     8     9 1   
    14     8    18 1   
    15     8    49 1   
    16     9    10 1   
    17     9    50 1   
    18    10    11 ar  
    19    10    15 ar  
    20    11    12 ar  
    21    11    51 1   
    22    12    13 ar  
    23    12    52 1   
    24    13    14 ar  
    25    13    53 1   
    26    14    15 ar  
    27    14    54 1   
    28    15    16 1   
    29    16    17 2   
    30    16    18 1   
    31    18    19 1   
    32    19    20 1   
    33    19    22 1   
    34    19    55 1   
    35    20    21 1   
    36    20    56 1   
    37    20    57 1   
    38    21    24 1   
    39    21    58 1   
    40    21    59 1   
    41    22    23 1   
    42    22    60 1   
    43    22    61 1   
    44    23    24 1   
    45    23    62 1   
    46    23    63 1   
    47    24    25 1   
    48    25    26 1   
    49    25    64 1   
    50    25    65 1   
    51    26    27 1   
    52    26    66 1   
    53    26    67 1   
    54    27    28 1   
    55    27    37 1   
    56    28    29 2   
    57    28    30 1   
    58    30    31 ar  
    59    30    35 ar  
    60    31    32 ar  
    61    31    68 1   
    62    32    33 ar  
    63    32    69 1   
    64    33    34 ar  
    65    33    70 1   
    66    34    35 ar  
    67    34    71 1   
    68    35    36 1   
    69    36    37 1   
    70    36    72 1   
    71    37    38 1   
    72    37    73 1   
    73    38    39 ar  
    74    38    44 ar  
    75    39    40 1   
    76    39    41 ar  
    77    41    42 ar  
    78    41    74 1   
    79    42    43 ar  
    80    42    75 1   
    81    43    44 ar  
    82    43    76 1   
    83    44    77 1   
@<TRIPOS>SUBSTRUCTURE
     1 JAY         1 TEMP              0 ****  ****    0 ROOT
