@<TRIPOS>MOLECULE
JAY
   77    83     1     0     0
SMALL
abcg2


@<TRIPOS>ATOM
      1 FAS         -4.9950     2.7540    -0.7270 f          1 JAY      -0.176000
      2 CAN         -5.6090     1.7620    -1.3950 ca         1 JAY       0.193000
      3 CAO         -6.7490     2.0960    -2.1020 ca         1 JAY      -0.153000
      4 CAP         -7.4020     1.1140    -2.8290 ca         1 JAY      -0.075000
      5 CAQ         -6.8970    -0.1770    -2.8390 ca         1 JAY      -0.126000
      6 CAR         -5.7540    -0.4810    -2.1150 ca         1 JAY      -0.074000
      7 CAL         -5.0830     0.4780    -1.3580 ca         1 JAY      -0.180300
      8 CAH         -3.7960     0.1260    -0.5930 c6         1 JAY       0.460200
      9 NAG         -3.6380    -1.2900    -0.4190 nu         1 JAY      -0.959200
     10 CAE         -4.5650    -1.8740     0.4000 ca         1 JAY       0.335000
     11 CAD         -4.9060    -3.2270     0.3140 ca         1 JAY      -0.196000
     12 CAC         -5.8860    -3.7420     1.1410 ca         1 JAY      -0.047000
     13 CAB         -6.5390    -2.9340     2.0720 ca         1 JAY      -0.171000
     14 CAA         -6.1770    -1.6060     2.1840 ca         1 JAY      -0.013000
     15 CAF         -5.1920    -1.0630     1.3600 ca         1 JAY      -0.217600
     16 CAJ         -4.6680     0.2990     1.6180 c          1 JAY       0.589600
     17 OAK         -4.9790     0.9320     2.6180 o          1 JAY      -0.556000
     18 NAI         -3.7410     0.7370     0.7230 n          1 JAY      -0.422800
     19 CAM         -2.8530     1.8500     1.1010 c6         1 JAY       0.142700
     20 CAT         -2.0040     1.4890     2.3240 c6         1 JAY      -0.092900
     21 CAU         -0.8980     0.5060     1.9920 c6         1 JAY       0.164300
     22 CAX         -1.8870     2.2870     0.0010 c6         1 JAY      -0.092900
     23 CAW         -0.7100     1.3440    -0.2330 c6         1 JAY       0.164300
     24 NAV          0.0070     1.0540     0.9960 n3         1 JAY      -0.720600
     25 CAY          1.1360     0.1740     0.7700 c3         1 JAY       0.148800
     26 CAZ          2.2680     0.8620     0.0120 c3         1 JAY       0.103000
     27 NBA          3.4170    -0.0170    -0.1200 n          1 JAY      -0.419800
     28 CBB          3.5460    -0.8230    -1.2060 c          1 JAY       0.591600
     29 OBR          2.7010    -0.8630    -2.0900 o          1 JAY      -0.563000
     30 CBC          4.7590    -1.6650    -1.2340 ca         1 JAY      -0.216600
     31 CBN          5.1030    -2.3690    -2.3860 ca         1 JAY      -0.017000
     32 CBO          6.1860    -3.2290    -2.3880 ca         1 JAY      -0.167000
     33 CBP          6.9210    -3.4000    -1.2160 ca         1 JAY      -0.046000
     34 CBQ          6.5950    -2.7120    -0.0620 ca         1 JAY      -0.185000
     35 CBD          5.5130    -1.8280    -0.0640 ca         1 JAY       0.330000
     36 NBE          5.1150    -1.1450     1.0560 nu         1 JAY      -0.939200
     37 CBF          4.4820     0.1340     0.8460 c6         1 JAY       0.455200
     38 CBG          5.4710     1.2240     0.4380 ca         1 JAY      -0.191300
     39 CBH          6.4000     1.6810     1.3620 ca         1 JAY       0.172000
     40 FBM          6.3710     1.1600     2.6040 f          1 JAY      -0.189000
     41 CBI          7.3470     2.6410     1.0760 ca         1 JAY      -0.149000
     42 CBJ          7.3760     3.1800    -0.2040 ca         1 JAY      -0.075000
     43 CBK          6.4620     2.7540    -1.1560 ca         1 JAY      -0.125000
     44 CBL          5.5180     1.7880    -0.8320 ca         1 JAY      -0.056000
     45 H1          -7.1110     3.1160    -2.0830 ha         1 JAY       0.134000
     46 H2          -8.2960     1.3620    -3.3850 ha         1 JAY       0.120000
     47 H3          -7.3900    -0.9530    -3.4100 ha         1 JAY       0.120000
     48 H4          -5.3840    -1.4960    -2.1440 ha         1 JAY       0.113000
     49 H5          -2.9580     0.4800    -1.1840 h2         1 JAY       0.087700
     50 H6          -3.2790    -1.8210    -1.1960 hn         1 JAY       0.488000
     51 H7          -4.4160    -3.8600    -0.4160 ha         1 JAY       0.113000
     52 H8          -6.1530    -4.7870     1.0540 ha         1 JAY       0.111000
     53 H9          -7.3100    -3.3480     2.7080 ha         1 JAY       0.118000
     54 H10         -6.6490    -0.9730     2.9240 ha         1 JAY       0.134000
     55 H11         -3.4790     2.7080     1.3530 h1         1 JAY       0.071700
     56 H12         -1.5530     2.4140     2.6960 hc         1 JAY       0.059950
     57 H13         -2.6140     1.0940     3.1340 hc         1 JAY       0.059950
     58 H14         -0.3280     0.2920     2.9000 h1         1 JAY       0.035450
     59 H15         -1.3320    -0.4550     1.6620 h1         1 JAY       0.035450
     60 H16         -2.3890     2.4840    -0.9470 hc         1 JAY       0.059950
     61 H17         -1.4880     3.2520     0.3230 hc         1 JAY       0.059950
     62 H18         -1.0370     0.4080    -0.7190 h1         1 JAY       0.035450
     63 H19         -0.0400     1.8310    -0.9430 h1         1 JAY       0.035450
     64 H21          1.5210    -0.1410     1.7440 h1         1 JAY       0.043200
     65 H22          0.8450    -0.7440     0.2350 h1         1 JAY       0.043200
     66 H23          1.9540     1.1790    -0.9810 h1         1 JAY       0.061700
     67 H24          2.5790     1.7580     0.5510 h1         1 JAY       0.061700
     68 H25          4.5090    -2.2400    -3.2810 ha         1 JAY       0.132000
     69 H26          6.4540    -3.7700    -3.2850 ha         1 JAY       0.119000
     70 H27          7.7670    -4.0750    -1.2050 ha         1 JAY       0.112000
     71 H28          7.1760    -2.8480     0.8420 ha         1 JAY       0.117000
     72 H29          5.7260    -1.1950     1.8570 hn         1 JAY       0.487000
     73 H30          4.0200     0.4200     1.7930 h2         1 JAY       0.086700
     74 H31          8.0440     2.9630     1.8380 ha         1 JAY       0.134000
     75 H32          8.1130     3.9330    -0.4490 ha         1 JAY       0.121000
     76 H33          6.4780     3.1740    -2.1520 ha         1 JAY       0.123000
     77 H34          4.8030     1.4860    -1.5870 ha         1 JAY       0.129000
@<TRIPOS>BOND
     1     1     2 1   
     2     2     3 ar  
     3     2     7 ar  
     4     3     4 ar  
     5     3    45 1   
     6     4     5 ar  
     7     4    46 1   
     8     5     6 ar  
     9     5    47 1   
    10     6     7 ar  
    11     6    48 1   
    12     7     8 1   
    13     8     9 1   
    14     8    18 1   
    15     8    49 1   
    16     9    10 1   
    17     9    50 1   
    18    10    11 ar  
    19    10    15 ar  
    20    11    12 ar  
    21    11    51 1   
    22    12    13 ar  
    23    12    52 1   
    24    13    14 ar  
    25    13    53 1   
    26    14    15 ar  
    27    14    54 1   
    28    15    16 1   
    29    16    17 2   
    30    16    18 1   
    31    18    19 1   
    32    19    20 1   
    33    19    22 1   
    34    19    55 1   
    35    20    21 1   
    36    20    56 1   
    37    20    57 1   
    38    21    24 1   
    39    21    58 1   
    40    21    59 1   
    41    22    23 1   
    42    22    60 1   
    43    22    61 1   
    44    23    24 1   
    45    23    62 1   
    46    23    63 1   
    47    24    25 1   
    48    25    26 1   
    49    25    64 1   
    50    25    65 1   
    51    26    27 1   
    52    26    66 1   
    53    26    67 1   
    54    27    28 1   
    55    27    37 1   
    56    28    29 2   
    57    28    30 1   
    58    30    31 ar  
    59    30    35 ar  
    60    31    32 ar  
    61    31    68 1   
    62    32    33 ar  
    63    32    69 1   
    64    33    34 ar  
    65    33    70 1   
    66    34    35 ar  
    67    34    71 1   
    68    35    36 1   
    69    36    37 1   
    70    36    72 1   
    71    37    38 1   
    72    37    73 1   
    73    38    39 ar  
    74    38    44 ar  
    75    39    40 1   
    76    39    41 ar  
    77    41    42 ar  
    78    41    74 1   
    79    42    43 ar  
    80    42    75 1   
    81    43    44 ar  
    82    43    76 1   
    83    44    77 1   
@<TRIPOS>SUBSTRUCTURE
     1 JAY         1 TEMP              0 ****  ****    0 ROOT
