@<TRIPOS>MOLECULE
JB0
  151   160     1     0     0
SMALL
bcc


@<TRIPOS>ATOM
      1 C10         22.2570   -25.1750    29.0310 c6         1 JB0       0.117100
      2 C15         25.1130   -24.8130    33.4220 c6         1 JB0       0.116100
      3 C17         25.9880   -25.4040    34.5250 c6         1 JB0      -0.141400
      4 C20         25.9890   -28.6020    36.3350 c6         1 JB0       0.120100
      5 C21         27.2050   -29.2660    36.9640 c6         1 JB0      -0.075400
      6 C22         26.7960   -30.5520    37.6730 c6         1 JB0      -0.102400
      7 C26         25.1460   -31.3600    41.5850 c6         1 JB0      -0.129400
      8 C01         22.8490   -27.5680    25.2260 c3         1 JB0      -0.118100
      9 C02         23.0040   -26.0670    25.0080 c6         1 JB0       0.167100
     10 C04         21.5690   -25.3000    26.7630 c6         1 JB0       0.346900
     11 C05         20.5800   -24.6740    25.7990 c6         1 JB0      -0.099400
     12 C06         20.6300   -25.4230    24.4700 c6         1 JB0      -0.115400
     13 C07         22.0620   -25.4790    23.9510 c6         1 JB0       0.115100
     14 C11         22.6950   -24.0650    29.9740 c6         1 JB0      -0.095400
     15 C12         23.1470   -24.6080    31.3180 c6         1 JB0       0.353900
     16 C14         25.1350   -25.7300    32.2030 c6         1 JB0       0.136100
     17 C18         25.5730   -26.8350    34.8020 c6         1 JB0       0.352900
     18 C23         25.6550   -30.2800    38.6340 c6         1 JB0       0.347900
     19 C25         24.3530   -31.4030    40.2720 c6         1 JB0       0.159100
     20 C27         25.2930   -32.7210    42.2320 c6         1 JB0       0.346900
     21 C29         26.5240   -34.7500    41.9320 c6         1 JB0       0.078100
     22 C30         26.8840   -35.6510    40.7520 c6         1 JB0       0.160100
     23 C32         27.7940   -36.7570    41.2480 c6         1 JB0      -0.117400
     24 C33         29.1080   -36.1400    41.6920 c6         1 JB0       0.355900
     25 C35         31.0070   -37.4480    42.3330 ca         1 JB0       0.157100
     26 C36         31.9790   -37.5190    43.3250 ca         1 JB0      -0.108600
     27 C37         31.6940   -37.1930    44.7360 c          1 JB0       0.581900
     28 C39         32.8020   -37.2590    45.7190 cc         1 JB0      -0.132400
     29 C40         34.0920   -37.4590    45.3670 cd         1 JB0      -0.040400
     30 C41         34.3440   -37.9480    43.9950 c          1 JB0       0.613900
     31 C43         33.2850   -37.9640    43.0000 ca         1 JB0      -0.252600
     32 C44         33.5940   -38.3700    41.6920 ca         1 JB0       0.209100
     33 C46         32.5860   -38.3260    40.7170 ca         1 JB0      -0.141000
     34 C47         31.3330   -37.8820    41.0320 ca         1 JB0      -0.131000
     35 C48         35.1690   -37.3450    46.3730 ca         1 JB0      -0.143800
     36 C49         36.4980   -36.9490    46.1190 ca         1 JB0       0.196100
     37 C51         37.3910   -36.7770    47.1790 ca         1 JB0      -0.176000
     38 C52         37.0160   -36.9770    48.4940 ca         1 JB0      -0.022300
     39 C53         37.9920   -36.7970    49.6170 c3         1 JB0      -0.050800
     40 C54         35.6970   -37.3530    48.7510 ca         1 JB0      -0.169000
     41 C55         34.7940   -37.5200    47.7220 ca         1 JB0      -0.016300
     42 C56         33.3670   -37.8550    48.0180 c6         1 JB0      -0.080100
     43 C57         32.4390   -37.0160    47.1590 c6         1 JB0       0.193300
     44 C60         27.7170   -34.5800    42.9040 c6         1 JB0       0.132100
     45 C61         27.5020   -35.3200    44.2150 c3         1 JB0      -0.119100
     46 C63         22.9500   -32.9350    41.6600 c6         1 JB0       0.125100
     47 C64         21.9510   -34.0730    41.6970 c3         1 JB0      -0.097100
     48 C65         23.4100   -32.5990    40.2370 c6         1 JB0       0.123100
     49 C68         24.8780   -28.3940    37.3810 c6         1 JB0       0.133100
     50 C69         25.1870   -27.3020    38.3990 c3         1 JB0      -0.118100
     51 C71         24.7930   -27.1760    32.6110 c6         1 JB0       0.138100
     52 C72         24.9260   -28.1480    31.4580 c3         1 JB0      -0.080100
     53 C74         21.0050   -25.7230    31.1600 c6         1 JB0       0.178100
     54 C75         20.1940   -26.7260    31.9550 c3         1 JB0      -0.083100
     55 C76         21.3050   -26.1780    29.7360 c6         1 JB0       0.088100
     56 O03         22.8640   -25.3210    26.2070 os         1 JB0      -0.441600
     57 O08         22.1960   -26.2480    22.7790 oh         1 JB0      -0.591800
     58 O09         21.6350   -24.5420    27.9220 os         1 JB0      -0.399600
     59 O13         24.3470   -25.2960    31.1080 os         1 JB0      -0.412600
     60 O16         25.5660   -23.5410    33.0210 oh         1 JB0      -0.586800
     61 O19         26.4120   -27.3780    35.7580 os         1 JB0      -0.395600
     62 O24         25.1820   -31.4850    39.1240 os         1 JB0      -0.386600
     63 O28         26.0850   -33.5170    41.3910 os         1 JB0      -0.428600
     64 O31         25.7550   -36.2350    40.1530 oh         1 JB0      -0.594800
     65 O34         29.7620   -37.0270    42.6040 os         1 JB0      -0.341900
     66 O38         30.5920   -36.8690    45.1290 o          1 JB0      -0.477100
     67 O42         35.4690   -38.3750    43.7010 o          1 JB0      -0.600100
     68 O45         34.7820   -38.8070    41.3070 oh         1 JB0      -0.494100
     69 O50         36.9880   -36.6540    44.9040 oh         1 JB0      -0.520100
     70 O58         32.5620   -35.6320    47.3890 oh         1 JB0      -0.573800
     71 O59         28.9590   -34.8960    42.2770 os         1 JB0      -0.396600
     72 O62         24.0510   -33.3170    42.4800 os         1 JB0      -0.442600
     73 O66         22.3270   -32.2750    39.3990 oh         1 JB0      -0.581800
     74 O67         24.5820   -29.6490    37.9710 os         1 JB0      -0.435600
     75 O70         25.6900   -27.5950    33.6240 os         1 JB0      -0.442600
     76 O73         22.1840   -25.4500    31.9020 os         1 JB0      -0.449600
     77 O77         21.8310   -27.4840    29.7820 oh         1 JB0      -0.580800
     78 H1          23.1450   -25.7270    28.7030 h1         1 JB0       0.078700
     79 H2          24.0850   -24.7580    33.8110 h1         1 JB0       0.039700
     80 H3          27.0380   -25.3850    34.2170 hc         1 JB0       0.067700
     81 H4          25.8910   -24.8000    35.4310 hc         1 JB0       0.067700
     82 H5          25.5960   -29.2740    35.5600 h1         1 JB0       0.068700
     83 H6          27.9440   -29.4830    36.1900 hc         1 JB0       0.057200
     84 H7          27.6840   -28.5810    37.6700 hc         1 JB0       0.057200
     85 H8          26.4730   -31.2970    36.9400 hc         1 JB0       0.064700
     86 H9          27.6440   -30.9730    38.2170 hc         1 JB0       0.064700
     87 H11         24.6260   -30.7110    42.2940 hc         1 JB0       0.067700
     88 H12         23.4670   -27.8840    26.0690 hc         1 JB0       0.044700
     89 H13         21.8250   -27.8810    25.4270 hc         1 JB0       0.044700
     90 H14         23.1920   -28.1150    24.3490 hc         1 JB0       0.044700
     91 H15         24.0350   -25.8840    24.6900 h1         1 JB0       0.084700
     92 H16         21.2410   -26.3300    26.9850 h2         1 JB0       0.013700
     93 H17         20.8380   -23.6210    25.6510 hc         1 JB0       0.063700
     94 H18         19.5750   -24.7110    26.2220 hc         1 JB0       0.063700
     95 H19         19.9890   -24.9270    23.7360 hc         1 JB0       0.049700
     96 H20         20.2360   -26.4360    24.5930 hc         1 JB0       0.049700
     97 H21         22.3910   -24.4430    23.7730 h1         1 JB0       0.043700
     98 H22         23.5030   -23.4800    29.5330 hc         1 JB0       0.073200
     99 H23         21.8640   -23.3730    30.1410 hc         1 JB0       0.073200
    100 H24         23.3080   -23.7700    32.0040 h2         1 JB0       0.057700
    101 H25         26.1640   -25.7420    31.8200 h1         1 JB0       0.089700
    102 H26         24.5180   -26.8530    35.1340 h2         1 JB0       0.019700
    103 H27         26.0140   -29.6380    39.4570 h2         1 JB0       0.018700
    104 H28         23.7360   -30.4990    40.2240 h1         1 JB0       0.069700
    105 H29         25.7730   -32.6170    43.2140 h2         1 JB0       0.062700
    106 H30         25.7060   -35.2370    42.4770 h1         1 JB0       0.071700
    107 H31         27.4360   -35.0430    40.0180 h1         1 JB0       0.052700
    108 H32         27.3180   -37.3050    42.0660 hc         1 JB0       0.075200
    109 H33         27.9920   -37.4800    40.4540 hc         1 JB0       0.075200
    110 H34         29.7570   -35.9790    40.8260 h2         1 JB0       0.064700
    111 H35         32.8090   -38.6630    39.7130 ha         1 JB0       0.158000
    112 H36         30.5730   -37.8970    40.2610 ha         1 JB0       0.145000
    113 H37         38.4040   -36.4720    46.9420 ha         1 JB0       0.147000
    114 H38         37.6010   -36.1120    50.3700 hc         1 JB0       0.045367
    115 H39         38.1850   -37.7460    50.1210 hc         1 JB0       0.045367
    116 H40         38.9440   -36.4060    49.2650 hc         1 JB0       0.045367
    117 H41         35.3650   -37.4950    49.7730 ha         1 JB0       0.130000
    118 H42         33.1480   -37.7060    49.0780 hc         1 JB0       0.061200
    119 H43         33.1690   -38.9120    47.8050 hc         1 JB0       0.061200
    120 H44         31.4130   -37.3580    47.3260 h1         1 JB0       0.059700
    121 H45         27.8230   -33.5180    43.1380 h1         1 JB0       0.077700
    122 H46         28.3640   -35.2130    44.8700 hc         1 JB0       0.052033
    123 H47         26.6360   -34.8940    44.7230 hc         1 JB0       0.052033
    124 H48         27.3080   -36.3840    44.0800 hc         1 JB0       0.052033
    125 H49         22.4770   -32.0380    42.0870 h1         1 JB0       0.049700
    126 H50         21.7020   -34.3320    42.7260 hc         1 JB0       0.046700
    127 H51         21.0230   -33.7910    41.2020 hc         1 JB0       0.046700
    128 H52         22.3480   -34.9650    41.2070 hc         1 JB0       0.046700
    129 H53         23.9570   -33.4680    39.8480 h1         1 JB0       0.056700
    130 H54         23.9520   -28.1160    36.8710 h1         1 JB0       0.072700
    131 H55         24.4370   -27.3080    39.1910 hc         1 JB0       0.042033
    132 H56         26.1680   -27.4000    38.8640 hc         1 JB0       0.042033
    133 H57         25.1490   -26.3230    37.9230 hc         1 JB0       0.042033
    134 H58         23.7640   -27.2080    32.9960 h1         1 JB0       0.053700
    135 H59         24.7300   -29.1660    31.7960 hc         1 JB0       0.049033
    136 H60         24.2100   -27.9150    30.6750 hc         1 JB0       0.049033
    137 H61         25.9300   -28.1170    31.0310 hc         1 JB0       0.049033
    138 H62         20.4060   -24.8060    31.0680 h1         1 JB0       0.035700
    139 H63         19.9210   -26.3110    32.9250 hc         1 JB0       0.047367
    140 H64         19.2710   -26.9650    31.4260 hc         1 JB0       0.047367
    141 H65         20.7420   -27.6530    32.1190 hc         1 JB0       0.047367
    142 H66         20.3420   -26.1660    29.2040 h1         1 JB0       0.039700
    143 H67         21.6480   -25.8520    22.0950 ho         1 JB0       0.407000
    144 H68         25.4490   -22.9320    33.7580 ho         1 JB0       0.404000
    145 H69         25.2280   -35.5370    39.7500 ho         1 JB0       0.419000
    146 H70         35.3770   -38.7980    42.0880 ho         1 JB0       0.479000
    147 H71         36.5740   -37.2370    44.2430 ho         1 JB0       0.455000
    148 H72         32.2670   -35.4500    48.2880 ho         1 JB0       0.406000
    149 H73         21.9240   -33.0890    39.0820 ho         1 JB0       0.408000
    150 H74         21.9790   -27.7940    28.8840 ho         1 JB0       0.401000
    151 H10         26.1320   -30.9130    41.4370 hc         1 JB0       0.067700
@<TRIPOS>BOND
     1     1    14 1   
     2     1    55 1   
     3     1    58 1   
     4     1    78 1   
     5     2     3 1   
     6     2    16 1   
     7     2    60 1   
     8     2    79 1   
     9     3    17 1   
    10     3    80 1   
    11     3    81 1   
    12     4     5 1   
    13     4    49 1   
    14     4    61 1   
    15     4    82 1   
    16     5     6 1   
    17     5    83 1   
    18     5    84 1   
    19     6    18 1   
    20     6    85 1   
    21     6    86 1   
    22     7    19 1   
    23     7    20 1   
    24     7    87 1   
    25     7   151 1   
    26     8     9 1   
    27     8    88 1   
    28     8    89 1   
    29     8    90 1   
    30     9    13 1   
    31     9    56 1   
    32     9    91 1   
    33    10    11 1   
    34    10    56 1   
    35    10    58 1   
    36    10    92 1   
    37    11    12 1   
    38    11    93 1   
    39    11    94 1   
    40    12    13 1   
    41    12    95 1   
    42    12    96 1   
    43    13    57 1   
    44    13    97 1   
    45    14    15 1   
    46    14    98 1   
    47    14    99 1   
    48    15    59 1   
    49    15    76 1   
    50    15   100 1   
    51    16    51 1   
    52    16    59 1   
    53    16   101 1   
    54    17    61 1   
    55    17    75 1   
    56    17   102 1   
    57    18    62 1   
    58    18    74 1   
    59    18   103 1   
    60    19    48 1   
    61    19    62 1   
    62    19   104 1   
    63    20    63 1   
    64    20    72 1   
    65    20   105 1   
    66    21    22 1   
    67    21    44 1   
    68    21    63 1   
    69    21   106 1   
    70    22    23 1   
    71    22    64 1   
    72    22   107 1   
    73    23    24 1   
    74    23   108 1   
    75    23   109 1   
    76    24    65 1   
    77    24    71 1   
    78    24   110 1   
    79    25    26 ar  
    80    25    34 ar  
    81    25    65 1   
    82    26    27 1   
    83    26    31 ar  
    84    27    28 1   
    85    27    66 2   
    86    28    29 2   
    87    28    43 1   
    88    29    30 1   
    89    29    35 1   
    90    30    31 1   
    91    30    67 2   
    92    31    32 ar  
    93    32    33 ar  
    94    32    68 1   
    95    33    34 ar  
    96    33   111 1   
    97    34   112 1   
    98    35    36 ar  
    99    35    41 ar  
   100    36    37 ar  
   101    36    69 1   
   102    37    38 ar  
   103    37   113 1   
   104    38    39 1   
   105    38    40 ar  
   106    39   114 1   
   107    39   115 1   
   108    39   116 1   
   109    40    41 ar  
   110    40   117 1   
   111    41    42 1   
   112    42    43 1   
   113    42   118 1   
   114    42   119 1   
   115    43    70 1   
   116    43   120 1   
   117    44    45 1   
   118    44    71 1   
   119    44   121 1   
   120    45   122 1   
   121    45   123 1   
   122    45   124 1   
   123    46    47 1   
   124    46    48 1   
   125    46    72 1   
   126    46   125 1   
   127    47   126 1   
   128    47   127 1   
   129    47   128 1   
   130    48    73 1   
   131    48   129 1   
   132    49    50 1   
   133    49    74 1   
   134    49   130 1   
   135    50   131 1   
   136    50   132 1   
   137    50   133 1   
   138    51    52 1   
   139    51    75 1   
   140    51   134 1   
   141    52   135 1   
   142    52   136 1   
   143    52   137 1   
   144    53    54 1   
   145    53    55 1   
   146    53    76 1   
   147    53   138 1   
   148    54   139 1   
   149    54   140 1   
   150    54   141 1   
   151    55    77 1   
   152    55   142 1   
   153    57   143 1   
   154    60   144 1   
   155    64   145 1   
   156    68   146 1   
   157    69   147 1   
   158    70   148 1   
   159    73   149 1   
   160    77   150 1   
@<TRIPOS>SUBSTRUCTURE
     1 JB0         1 TEMP              0 ****  ****    0 ROOT
