@<TRIPOS>MOLECULE
JB0
  151   160     1     0     0
SMALL
No Charge or Current Charge


@<TRIPOS>ATOM
      1 C10         20.4660   -24.6940    29.2060 c6         1 JB0       0.140300
      2 C15         25.1940   -24.7190    32.1230 c6         1 JB0       0.139300
      3 C17         26.4250   -25.3520    32.8130 c6         1 JB0      -0.141400
      4 C20         27.0890   -28.6740    34.4670 c6         1 JB0       0.143300
      5 C21         28.4750   -29.3180    34.7320 c6         1 JB0      -0.075400
      6 C22         28.3380   -30.6270    35.5520 c6         1 JB0      -0.102400
      7 C26         27.8820   -31.0080    39.8820 c6         1 JB0      -0.129400
      8 C01         19.0270   -26.7930    25.3920 c3         1 JB0      -0.118100
      9 C02         19.5980   -25.3870    25.0320 c6         1 JB0       0.190300
     10 C04         19.0790   -24.4010    27.2080 c6         1 JB0       0.393300
     11 C05         18.1060   -23.3800    26.5700 c6         1 JB0      -0.099400
     12 C06         17.4860   -23.9400    25.2620 c6         1 JB0      -0.115400
     13 C07         18.5980   -24.4270    24.2960 c6         1 JB0       0.138300
     14 C11         21.4810   -23.8780    30.0380 c6         1 JB0      -0.095400
     15 C12         22.3610   -24.7970    30.9330 c6         1 JB0       0.400300
     16 C14         24.7020   -25.6420    30.9570 c6         1 JB0       0.159300
     17 C18         26.1040   -26.7960    33.2570 c6         1 JB0       0.399300
     18 C23         27.5240   -30.3810    36.8420 c6         1 JB0       0.394300
     19 C25         26.8070   -31.5310    38.8750 c6         1 JB0       0.182300
     20 C27         28.4150   -32.1130    40.8170 c6         1 JB0       0.393300
     21 C29         29.8740   -34.0830    40.8290 c6         1 JB0       0.101300
     22 C30         30.3810   -35.2070    39.8860 c6         1 JB0       0.183300
     23 C32         31.1880   -36.2460    40.6930 c6         1 JB0      -0.117400
     24 C33         32.3970   -35.5840    41.4210 c6         1 JB0       0.402300
     25 C35         32.8520   -37.2710    43.1950 ca         1 JB0       0.157100
     26 C36         32.8120   -37.6440    44.5770 ca         1 JB0      -0.108600
     27 C37         32.4090   -36.6450    45.6530 c          1 JB0       0.581900
     28 C39         32.4090   -37.1170    47.0670 cc         1 JB0      -0.132400
     29 C40         32.8050   -38.3940    47.4710 cd         1 JB0      -0.040400
     30 C41         33.1070   -39.4070    46.4040 c          1 JB0       0.613900
     31 C43         33.1540   -38.9780    44.9520 ca         1 JB0      -0.252600
     32 C44         33.5390   -39.9040    43.9480 ca         1 JB0       0.209100
     33 C46         33.6040   -39.5190    42.6100 ca         1 JB0      -0.123000
     34 C47         33.2700   -38.2180    42.2320 ca         1 JB0      -0.113000
     35 C48         32.7340   -38.7440    48.9450 ca         1 JB0      -0.143800
     36 C49         33.4760   -39.7770    49.5990 ca         1 JB0       0.196100
     37 C51         33.3390   -40.0080    50.9770 ca         1 JB0      -0.158000
     38 C52         32.4740   -39.2350    51.7580 ca         1 JB0      -0.022300
     39 C53         32.3260   -39.5030    53.2480 c3         1 JB0      -0.050800
     40 C54         31.7600   -38.1990    51.1470 ca         1 JB0      -0.151000
     41 C55         31.9010   -37.9430    49.7710 ca         1 JB0      -0.016300
     42 C56         31.1390   -36.7720    49.1710 c6         1 JB0      -0.080100
     43 C57         31.9670   -36.0790    48.0790 c6         1 JB0       0.216500
     44 C60         31.0760   -33.4770    41.6320 c6         1 JB0       0.155300
     45 C61         30.8420   -33.4720    43.1640 c3         1 JB0      -0.119100
     46 C63         26.0530   -32.8910    40.8770 c6         1 JB0       0.148300
     47 C64         25.4010   -34.1720    41.4580 c3         1 JB0      -0.097100
     48 C65         26.1810   -32.8950    39.3230 c6         1 JB0       0.146300
     49 C68         26.2680   -28.5590    35.7990 c6         1 JB0       0.156300
     50 C69         26.7730   -27.4650    36.7870 c3         1 JB0      -0.118100
     51 C71         24.4870   -27.0980    31.4820 c6         1 JB0       0.161300
     52 C72         24.1590   -28.1080    30.3540 c3         1 JB0      -0.080100
     53 C74         20.2770   -25.9130    31.4660 c6         1 JB0       0.201300
     54 C75         19.8030   -27.2140    32.1640 c3         1 JB0      -0.083100
     55 C76         19.5290   -25.5600    30.1270 c6         1 JB0       0.111300
     56 O03         20.0930   -24.7560    26.2420 os         1 JB0      -0.488000
     57 O08         18.0110   -25.0430    23.1380 oh         1 JB0      -0.714000
     58 O09         19.7250   -23.7970    28.3410 os         1 JB0      -0.446000
     59 O13         23.5730   -25.0950    30.2090 os         1 JB0      -0.459000
     60 O16         25.5150   -23.3960    31.6600 oh         1 JB0      -0.709000
     61 O19         27.2800   -27.3940    33.8210 os         1 JB0      -0.442000
     62 O24         27.3210   -31.6300    37.5230 os         1 JB0      -0.433000
     63 O28         29.1430   -33.0950    40.0550 os         1 JB0      -0.475000
     64 O31         29.2820   -35.8260    39.2070 oh         1 JB0      -0.717000
     65 O34         32.4990   -35.9830    42.8060 os         1 JB0      -0.365100
     66 O38         32.0950   -35.4930    45.3820 o          1 JB0      -0.477100
     67 O42         33.2990   -40.5900    46.6720 o          1 JB0      -0.600100
     68 O45         33.8630   -41.1930    44.2420 oh         1 JB0      -0.533100
     69 O50         34.3960   -40.5450    48.9570 oh         1 JB0      -0.559100
     70 O58         33.1140   -35.4390    48.6530 oh         1 JB0      -0.636000
     71 O59         32.3360   -34.1360    41.3160 os         1 JB0      -0.443000
     72 O62         27.3420   -32.7690    41.5370 os         1 JB0      -0.489000
     73 O66         24.9110   -33.1180    38.6670 oh         1 JB0      -0.704000
     74 O67         26.2360   -29.8360    36.4870 os         1 JB0      -0.482000
     75 O70         25.7010   -27.5680    32.1110 os         1 JB0      -0.489000
     76 O73         21.6900   -26.0450    31.2230 os         1 JB0      -0.496000
     77 O77         19.0800   -26.7320    29.4040 oh         1 JB0      -0.703000
     78 H1          21.0560   -25.3780    28.5760 h1         1 JB0       0.078700
     79 H2          24.3940   -24.6610    32.8770 h1         1 JB0       0.039700
     80 H3          27.2840   -25.3620    32.1290 hc         1 JB0       0.067700
     81 H4          26.7170   -24.7600    33.6900 hc         1 JB0       0.067700
     82 H5          26.5380   -29.3360    33.7820 h1         1 JB0       0.068700
     83 H6          28.9740   -29.5290    33.7760 hc         1 JB0       0.057200
     84 H7          29.1210   -28.6110    35.2690 hc         1 JB0       0.057200
     85 H8          27.8430   -31.3990    34.9470 hc         1 JB0       0.064700
     86 H9          29.3320   -31.0140    35.8110 hc         1 JB0       0.064700
     87 H11         27.4400   -30.2150    40.5000 hc         1 JB0       0.067700
     88 H12         19.7370   -27.3570    26.0080 hc         1 JB0       0.044700
     89 H13         18.0790   -26.7380    25.9360 hc         1 JB0       0.044700
     90 H14         18.8460   -27.3800    24.4840 hc         1 JB0       0.044700
     91 H15         20.4610   -25.5470    24.3690 h1         1 JB0       0.084700
     92 H16         18.5130   -25.2870    27.5200 h2         1 JB0       0.013700
     93 H17         18.6440   -22.4450    26.3590 hc         1 JB0       0.063700
     94 H18         17.3110   -23.1330    27.2850 hc         1 JB0       0.063700
     95 H19         16.8770   -23.1630    24.7790 hc         1 JB0       0.049700
     96 H20         16.8020   -24.7660    25.5030 hc         1 JB0       0.049700
     97 H21         19.1750   -23.5430    23.9820 h1         1 JB0       0.043700
     98 H22         22.1190   -23.2820    29.3730 hc         1 JB0       0.073200
     99 H23         20.9460   -23.1600    30.6720 hc         1 JB0       0.073200
    100 H24         22.5900   -24.2590    31.8650 h2         1 JB0       0.057700
    101 H25         25.5340   -25.7020    30.2410 h1         1 JB0       0.089700
    102 H26         25.2940   -26.7790    34.0010 h2         1 JB0       0.019700
    103 H27         28.0690   -29.6830    37.4920 h2         1 JB0       0.018700
    104 H28         25.9880   -30.7950    38.8670 h1         1 JB0       0.069700
    105 H29         29.0960   -31.6460    41.5450 h2         1 JB0       0.062700
    106 H30         29.1750   -34.5470    41.5410 h1         1 JB0       0.071700
    107 H31         31.0540   -34.7510    39.1430 h1         1 JB0       0.052700
    108 H32         30.5340   -36.7400    41.4240 hc         1 JB0       0.075200
    109 H33         31.5480   -37.0290    40.0150 hc         1 JB0       0.075200
    110 H34         33.3210   -35.8870    40.9070 h2         1 JB0       0.064700
    111 H35         33.9140   -40.2390    41.8570 ha         1 JB0       0.140000
    112 H36         33.3490   -37.9750    41.1780 ha         1 JB0       0.127000
    113 H37         33.9210   -40.8000    51.4430 ha         1 JB0       0.129000
    114 H38         32.0940   -38.5840    53.7990 hc         1 JB0       0.045367
    115 H39         31.5190   -40.2200    53.4370 hc         1 JB0       0.045367
    116 H40         33.2480   -39.9170    53.6740 hc         1 JB0       0.045367
    117 H41         31.0990   -37.5790    51.7480 ha         1 JB0       0.112000
    118 H42         30.8580   -36.0450    49.9460 hc         1 JB0       0.061200
    119 H43         30.1990   -37.1390    48.7390 hc         1 JB0       0.061200
    120 H44         31.3110   -35.3210    47.6250 h1         1 JB0       0.059700
    121 H45         31.1980   -32.4280    41.3270 h1         1 JB0       0.077700
    122 H46         31.7570   -33.2030    43.7040 hc         1 JB0       0.052033
    123 H47         30.0720   -32.7420    43.4380 hc         1 JB0       0.052033
    124 H48         30.5000   -34.4480    43.5240 hc         1 JB0       0.052033
    125 H49         25.4380   -32.0280    41.1750 h1         1 JB0       0.049700
    126 H50         25.3850   -34.1410    42.5530 hc         1 JB0       0.046700
    127 H51         24.3630   -34.2810    41.1210 hc         1 JB0       0.046700
    128 H52         25.9520   -35.0700    41.1550 hc         1 JB0       0.046700
    129 H53         26.8780   -33.6980    39.0430 h1         1 JB0       0.056700
    130 H54         25.2280   -28.3100    35.5420 h1         1 JB0       0.072700
    131 H55         26.2330   -27.5160    37.7390 hc         1 JB0       0.042033
    132 H56         27.8440   -27.5510    37.0010 hc         1 JB0       0.042033
    133 H57         26.6070   -26.4630    36.3730 hc         1 JB0       0.042033
    134 H58         23.6810   -27.1210    32.2290 h1         1 JB0       0.053700
    135 H59         24.0410   -29.1200    30.7560 hc         1 JB0       0.049033
    136 H60         23.2250   -27.8450    29.8440 hc         1 JB0       0.049033
    137 H61         24.9550   -28.1340    29.6000 hc         1 JB0       0.049033
    138 H62         20.1270   -25.0900    32.1810 h1         1 JB0       0.035700
    139 H63         20.3170   -27.3470    33.1230 hc         1 JB0       0.047367
    140 H64         18.7260   -27.1830    32.3700 hc         1 JB0       0.047367
    141 H65         20.0100   -28.1010    31.5540 hc         1 JB0       0.047367
    142 H66         18.6580   -24.9460    30.3980 h1         1 JB0       0.039700
    143 H67         17.4510   -24.3590    22.7020 ho         1 JB0       0.506000
    144 H68         25.7710   -22.8640    32.4490 ho         1 JB0       0.503000
    145 H69         28.7230   -35.0730    38.9050 ho         1 JB0       0.518000
    146 H70         33.7080   -41.2950    45.2170 ho         1 JB0       0.518000
    147 H71         34.0660   -40.6630    48.0280 ho         1 JB0       0.494000
    148 H72         32.7790   -34.8210    49.3370 ho         1 JB0       0.445000
    149 H73         24.7570   -34.0900    38.6560 ho         1 JB0       0.507000
    150 H74         18.3920   -27.1700    29.9530 ho         1 JB0       0.500000
    151 H10         28.7290   -30.5460    39.3610 hc         1 JB0       0.067700
@<TRIPOS>BOND
     1     1    14 1   
     2     1    55 1   
     3     1    58 1   
     4     1    78 1   
     5     2     3 1   
     6     2    16 1   
     7     2    60 1   
     8     2    79 1   
     9     3    17 1   
    10     3    80 1   
    11     3    81 1   
    12     4     5 1   
    13     4    49 1   
    14     4    61 1   
    15     4    82 1   
    16     5     6 1   
    17     5    83 1   
    18     5    84 1   
    19     6    18 1   
    20     6    85 1   
    21     6    86 1   
    22     7    19 1   
    23     7    20 1   
    24     7    87 1   
    25     7   151 1   
    26     8     9 1   
    27     8    88 1   
    28     8    89 1   
    29     8    90 1   
    30     9    13 1   
    31     9    56 1   
    32     9    91 1   
    33    10    11 1   
    34    10    56 1   
    35    10    58 1   
    36    10    92 1   
    37    11    12 1   
    38    11    93 1   
    39    11    94 1   
    40    12    13 1   
    41    12    95 1   
    42    12    96 1   
    43    13    57 1   
    44    13    97 1   
    45    14    15 1   
    46    14    98 1   
    47    14    99 1   
    48    15    59 1   
    49    15    76 1   
    50    15   100 1   
    51    16    51 1   
    52    16    59 1   
    53    16   101 1   
    54    17    61 1   
    55    17    75 1   
    56    17   102 1   
    57    18    62 1   
    58    18    74 1   
    59    18   103 1   
    60    19    48 1   
    61    19    62 1   
    62    19   104 1   
    63    20    63 1   
    64    20    72 1   
    65    20   105 1   
    66    21    22 1   
    67    21    44 1   
    68    21    63 1   
    69    21   106 1   
    70    22    23 1   
    71    22    64 1   
    72    22   107 1   
    73    23    24 1   
    74    23   108 1   
    75    23   109 1   
    76    24    65 1   
    77    24    71 1   
    78    24   110 1   
    79    25    26 ar  
    80    25    34 ar  
    81    25    65 1   
    82    26    27 1   
    83    26    31 ar  
    84    27    28 1   
    85    27    66 2   
    86    28    29 2   
    87    28    43 1   
    88    29    30 1   
    89    29    35 1   
    90    30    31 1   
    91    30    67 2   
    92    31    32 ar  
    93    32    33 ar  
    94    32    68 1   
    95    33    34 ar  
    96    33   111 1   
    97    34   112 1   
    98    35    36 ar  
    99    35    41 ar  
   100    36    37 ar  
   101    36    69 1   
   102    37    38 ar  
   103    37   113 1   
   104    38    39 1   
   105    38    40 ar  
   106    39   114 1   
   107    39   115 1   
   108    39   116 1   
   109    40    41 ar  
   110    40   117 1   
   111    41    42 1   
   112    42    43 1   
   113    42   118 1   
   114    42   119 1   
   115    43    70 1   
   116    43   120 1   
   117    44    45 1   
   118    44    71 1   
   119    44   121 1   
   120    45   122 1   
   121    45   123 1   
   122    45   124 1   
   123    46    47 1   
   124    46    48 1   
   125    46    72 1   
   126    46   125 1   
   127    47   126 1   
   128    47   127 1   
   129    47   128 1   
   130    48    73 1   
   131    48   129 1   
   132    49    50 1   
   133    49    74 1   
   134    49   130 1   
   135    50   131 1   
   136    50   132 1   
   137    50   133 1   
   138    51    52 1   
   139    51    75 1   
   140    51   134 1   
   141    52   135 1   
   142    52   136 1   
   143    52   137 1   
   144    53    54 1   
   145    53    55 1   
   146    53    76 1   
   147    53   138 1   
   148    54   139 1   
   149    54   140 1   
   150    54   141 1   
   151    55    77 1   
   152    55   142 1   
   153    57   143 1   
   154    60   144 1   
   155    64   145 1   
   156    68   146 1   
   157    69   147 1   
   158    70   148 1   
   159    73   149 1   
   160    77   150 1   
@<TRIPOS>SUBSTRUCTURE
     1 JB0         1 TEMP              0 ****  ****    0 ROOT
