@<TRIPOS>MOLECULE
JB1
   77    79     1     0     0
SMALL
bcc


@<TRIPOS>ATOM
      1 C31          8.2840    -1.1130     2.6510 c3         1 JB1      -0.088100
      2 C30          7.1050    -1.3890     1.7290 c3         1 JB1      -0.076400
      3 C29          6.4590    -0.1180     1.1900 c3         1 JB1      -0.078400
      4 C28          5.2870    -0.4140     0.2590 c3         1 JB1      -0.072400
      5 C22          4.4730     0.8090    -0.1760 c3         1 JB1      -0.051700
      6 C23          5.3650     1.8390    -0.8810 c3         1 JB1      -0.082400
      7 C24          4.6330     3.0870    -1.3370 c3         1 JB1       0.139400
      8 O03          5.5890     4.0450    -1.7460 oh         1 JB1      -0.602800
      9 C20          3.2270     0.4190    -1.0120 c3         1 JB1      -0.045700
     10 C21          3.6280    -0.2530    -2.3260 c3         1 JB1      -0.088100
     11 C17          2.2270    -0.4090    -0.1920 c5         1 JB1      -0.054700
     12 C16          1.7970     0.3160     1.1120 c5         1 JB1      -0.077400
     13 C15          0.3360    -0.0830     1.3960 c5         1 JB1      -0.070400
     14 C14          0.0770    -1.2140     0.4130 c5         1 JB1      -0.036500
     15 C13          0.8830    -0.8110    -0.8490 c5         1 JB1      -0.036000
     16 C18          0.2320     0.3810    -1.5510 c3         1 JB1      -0.079100
     17 C12          0.9320    -2.0300    -1.7750 c6         1 JB1      -0.063400
     18 C11         -0.4650    -2.5560    -2.1050 c6         1 JB1      -0.071400
     19 C09         -1.3110    -2.8230    -0.8550 c6         1 JB1      -0.042200
     20 C08         -1.3160    -1.6390     0.0730 c2         1 JB1      -0.078400
     21 C07         -2.4100    -1.0080     0.5290 ce         1 JB1      -0.141000
     22 C06         -3.7830    -1.3230     0.1860 ce         1 JB1      -0.112000
     23 C05         -4.8840    -0.7110     0.6560 cf         1 JB1      -0.066200
     24 C04         -6.2590    -1.0560     0.1530 c6         1 JB1      -0.073200
     25 C03         -6.9860     0.1890    -0.3640 c6         1 JB1       0.153100
     26 O02         -8.3210    -0.0980    -0.7240 oh         1 JB1      -0.599800
     27 C02         -7.0220     1.2580     0.7170 c6         1 JB1      -0.065400
     28 C01         -5.6300     1.6180     1.2180 c6         1 JB1       0.188300
     29 O01         -4.9460     2.2560     0.1550 oh         1 JB1      -0.593800
     30 C10         -4.8810     0.3780     1.6510 cf         1 JB1      -0.124200
     31 C19         -4.3080     0.2970     2.8510 c2         1 JB1      -0.196000
     32 H31          9.0650    -0.5500     2.1350 hc         1 JB1       0.031700
     33 H31A         7.9780    -0.5260     3.5190 hc         1 JB1       0.031700
     34 H31B         8.7310    -2.0370     3.0180 hc         1 JB1       0.031700
     35 H30          7.4360    -2.0080     0.8890 hc         1 JB1       0.035700
     36 H30A         6.3520    -1.9800     2.2610 hc         1 JB1       0.035700
     37 H29          6.1140     0.4970     2.0300 hc         1 JB1       0.039200
     38 H29A         7.2210     0.4720     0.6740 hc         1 JB1       0.039200
     39 H28          5.6610    -0.9430    -0.6240 hc         1 JB1       0.039700
     40 H28A         4.6250    -1.1180     0.7720 hc         1 JB1       0.039700
     41 H22          4.1130     1.2990     0.7370 hc         1 JB1       0.043700
     42 H23          6.1470     2.1530    -0.1840 hc         1 JB1       0.053700
     43 H23A         5.8860     1.3880    -1.7320 hc         1 JB1       0.053700
     44 H24          3.9440     2.8520    -2.1570 h1         1 JB1       0.016200
     45 H24A         4.0180     3.4670    -0.5070 h1         1 JB1       0.016200
     46 HO03         5.1200     4.7930    -2.1260 ho         1 JB1       0.402000
     47 H20          2.7130     1.3540    -1.2650 hc         1 JB1       0.044700
     48 H21          3.9420    -1.2880    -2.1790 hc         1 JB1       0.033700
     49 H21A         2.8090    -0.2580    -3.0430 hc         1 JB1       0.033700
     50 H21B         4.4560     0.2700    -2.8070 hc         1 JB1       0.033700
     51 H17          2.7100    -1.3540     0.0850 hc         1 JB1       0.046700
     52 H16          2.4550     0.0470     1.9400 hc         1 JB1       0.041200
     53 H16A         1.8840     1.4000     0.9970 hc         1 JB1       0.041200
     54 H15          0.1730    -0.3920     2.4300 hc         1 JB1       0.043700
     55 H15A        -0.3330     0.7610     1.2120 hc         1 JB1       0.043700
     56 H14          0.5870    -2.1060     0.8090 hc         1 JB1       0.053700
     57 H18          0.7720     0.6460    -2.4610 hc         1 JB1       0.034367
     58 H18A        -0.7990     0.1700    -1.8360 hc         1 JB1       0.034367
     59 H18B         0.2080     1.2670    -0.9150 hc         1 JB1       0.034367
     60 H12          1.4510    -1.8000    -2.7070 hc         1 JB1       0.041200
     61 H12A         1.5110    -2.8210    -1.2830 hc         1 JB1       0.041200
     62 H11         -0.9890    -1.8450    -2.7480 hc         1 JB1       0.041200
     63 H11A        -0.3810    -3.4800    -2.6830 hc         1 JB1       0.041200
     64 H09         -2.3150    -3.1300    -1.1470 hc         1 JB1       0.046200
     65 H09A        -0.8730    -3.6730    -0.3180 hc         1 JB1       0.046200
     66 H07         -2.2700    -0.1730     1.2070 ha         1 JB1       0.124000
     67 H06         -3.9410    -2.1030    -0.5530 ha         1 JB1       0.119000
     68 H04         -6.1980    -1.8130    -0.6340 hc         1 JB1       0.051700
     69 H04A        -6.8550    -1.4800     0.9710 hc         1 JB1       0.051700
     70 H03         -6.4310     0.5720    -1.2310 h1         1 JB1       0.049700
     71 HO02        -8.3080    -0.6960    -1.4780 ho         1 JB1       0.403000
     72 H02         -7.5240     2.1580     0.3500 hc         1 JB1       0.062200
     73 H02A        -7.6060     0.8910     1.5670 hc         1 JB1       0.062200
     74 H01         -5.7280     2.2940     2.0770 h1         1 JB1       0.036700
     75 HO01        -4.0520     2.4570     0.4510 ho         1 JB1       0.404000
     76 H19         -3.7870    -0.5940     3.1780 ha         1 JB1       0.118500
     77 H19A        -4.3550     1.1210     3.5520 ha         1 JB1       0.118500
@<TRIPOS>BOND
     1     1     2 1   
     2     1    32 1   
     3     1    33 1   
     4     1    34 1   
     5     2     3 1   
     6     2    35 1   
     7     2    36 1   
     8     3     4 1   
     9     3    37 1   
    10     3    38 1   
    11     4     5 1   
    12     4    39 1   
    13     4    40 1   
    14     5     6 1   
    15     5     9 1   
    16     5    41 1   
    17     6     7 1   
    18     6    42 1   
    19     6    43 1   
    20     7     8 1   
    21     7    44 1   
    22     7    45 1   
    23     8    46 1   
    24     9    10 1   
    25     9    11 1   
    26     9    47 1   
    27    10    48 1   
    28    10    49 1   
    29    10    50 1   
    30    11    12 1   
    31    11    15 1   
    32    11    51 1   
    33    12    13 1   
    34    12    52 1   
    35    12    53 1   
    36    13    14 1   
    37    13    54 1   
    38    13    55 1   
    39    14    15 1   
    40    14    20 1   
    41    14    56 1   
    42    15    16 1   
    43    15    17 1   
    44    16    57 1   
    45    16    58 1   
    46    16    59 1   
    47    17    18 1   
    48    17    60 1   
    49    17    61 1   
    50    18    19 1   
    51    18    62 1   
    52    18    63 1   
    53    19    20 1   
    54    19    64 1   
    55    19    65 1   
    56    20    21 2   
    57    21    22 1   
    58    21    66 1   
    59    22    23 2   
    60    22    67 1   
    61    23    24 1   
    62    23    30 1   
    63    24    25 1   
    64    24    68 1   
    65    24    69 1   
    66    25    26 1   
    67    25    27 1   
    68    25    70 1   
    69    26    71 1   
    70    27    28 1   
    71    27    72 1   
    72    27    73 1   
    73    28    29 1   
    74    28    30 1   
    75    28    74 1   
    76    29    75 1   
    77    30    31 2   
    78    31    76 1   
    79    31    77 1   
@<TRIPOS>SUBSTRUCTURE
     1 JB1         1 TEMP              0 ****  ****    0 ROOT
