@<TRIPOS>MOLECULE
JB1
   77    79     1     0     0
SMALL
No Charge or Current Charge


@<TRIPOS>ATOM
      1 C31          7.9830    -0.8600     3.3780 c3         1 JB1      -0.088100
      2 C30          6.9300    -1.2480     2.3220 c3         1 JB1      -0.076400
      3 C29          6.4020    -0.0380     1.5210 c3         1 JB1      -0.078400
      4 C28          5.3500    -0.4340     0.4550 c3         1 JB1      -0.072400
      5 C22          4.6510     0.7590    -0.2750 c3         1 JB1      -0.051700
      6 C23          5.6930     1.6770    -0.9990 c3         1 JB1      -0.082400
      7 C24          5.1030     2.8870    -1.7580 c3         1 JB1       0.162600
      8 O03          6.1620     3.7360    -2.2100 oh         1 JB1      -0.665000
      9 C20          3.4510     0.2890    -1.1950 c3         1 JB1      -0.045700
     10 C21          3.9460    -0.6030    -2.3650 c3         1 JB1      -0.088100
     11 C17          2.2400    -0.3320    -0.3970 c5         1 JB1      -0.054700
     12 C16          1.7020     0.6200     0.7420 c5         1 JB1      -0.077400
     13 C15          0.1820     0.3070     0.9040 c5         1 JB1      -0.070400
     14 C14          0.0330    -1.0100     0.0970 c5         1 JB1      -0.036500
     15 C13          0.9120    -0.7180    -1.1700 c5         1 JB1      -0.036000
     16 C18          0.3880     0.4470    -2.0820 c3         1 JB1      -0.079100
     17 C12          0.9710    -2.0310    -2.0230 c6         1 JB1      -0.063400
     18 C11         -0.4400    -2.5080    -2.4710 c6         1 JB1      -0.071400
     19 C09         -1.4260    -2.6500    -1.2840 c6         1 JB1      -0.042200
     20 C08         -1.3830    -1.4410    -0.3440 c2         1 JB1      -0.078400
     21 C07         -2.4620    -0.8110     0.2000 ce         1 JB1      -0.191000
     22 C06         -3.8790    -1.1160    -0.0780 ce         1 JB1      -0.162000
     23 C05         -4.9610    -0.6700     0.6310 cf         1 JB1      -0.066200
     24 C04         -6.3820    -1.0150     0.1440 c6         1 JB1      -0.073200
     25 C03         -7.3040     0.2270     0.1350 c6         1 JB1       0.176300
     26 O02         -8.6360    -0.1540    -0.2330 oh         1 JB1      -0.662000
     27 C02         -7.3140     0.8950     1.5260 c6         1 JB1      -0.065400
     28 C01         -5.8930     1.3190     1.9640 c6         1 JB1       0.211500
     29 O01         -5.4540     2.4420     1.1970 oh         1 JB1      -0.656000
     30 C10         -4.8990     0.1430     1.8560 cf         1 JB1      -0.124200
     31 C19         -4.0550    -0.1330     2.8790 c2         1 JB1      -0.296000
     32 H31          8.8530    -0.3890     2.9040 hc         1 JB1       0.031700
     33 H31A         7.5610    -0.1560     4.1060 hc         1 JB1       0.031700
     34 H31B         8.3270    -1.7490     3.9200 hc         1 JB1       0.031700
     35 H30          7.3710    -1.9770     1.6300 hc         1 JB1       0.035700
     36 H30A         6.0920    -1.7480     2.8230 hc         1 JB1       0.035700
     37 H29          5.9590     0.6870     2.2150 hc         1 JB1       0.039200
     38 H29A         7.2540     0.4530     1.0370 hc         1 JB1       0.039200
     39 H28          5.8280    -1.0870    -0.2860 hc         1 JB1       0.039700
     40 H28A         4.5950    -1.0430     0.9630 hc         1 JB1       0.039700
     41 H22          4.2240     1.3920     0.5120 hc         1 JB1       0.043700
     42 H23          6.3800     2.0810    -0.2480 hc         1 JB1       0.053700
     43 H23A         6.3110     1.0860    -1.6850 hc         1 JB1       0.053700
     44 H24          4.5160     2.5360    -2.6170 h1         1 JB1       0.016200
     45 H24A         4.4320     3.4420    -1.0880 h1         1 JB1       0.016200
     46 HO03         5.7420     4.4900    -2.6820 ho         1 JB1       0.441000
     47 H20          3.0500     1.1950    -1.6600 hc         1 JB1       0.044700
     48 H21          4.0590    -1.6460    -2.0470 hc         1 JB1       0.033700
     49 H21A         3.2440    -0.5620    -3.2030 hc         1 JB1       0.033700
     50 H21B         4.9070    -0.2670    -2.7640 hc         1 JB1       0.033700
     51 H17          2.6280    -1.2480     0.0620 hc         1 JB1       0.046700
     52 H16          2.2440     0.4510     1.6790 hc         1 JB1       0.041200
     53 H16A         1.8400     1.6780     0.4910 hc         1 JB1       0.041200
     54 H15         -0.1040     0.1840     1.9550 hc         1 JB1       0.043700
     55 H15A        -0.4240     1.1250     0.4980 hc         1 JB1       0.043700
     56 H14          0.4620    -1.8340     0.6820 hc         1 JB1       0.053700
     57 H18          0.9480     0.4920    -3.0240 hc         1 JB1       0.034367
     58 H18A        -0.6710     0.3280    -2.3380 hc         1 JB1       0.034367
     59 H18B         0.4900     1.4320    -1.6140 hc         1 JB1       0.034367
     60 H12          1.5830    -1.9010    -2.9210 hc         1 JB1       0.041200
     61 H12A         1.4510    -2.8290    -1.4400 hc         1 JB1       0.041200
     62 H11         -0.8550    -1.8090    -3.2090 hc         1 JB1       0.041200
     63 H11A        -0.3540    -3.4710    -2.9920 hc         1 JB1       0.041200
     64 H09         -2.4290    -2.8410    -1.6800 hc         1 JB1       0.046200
     65 H09A        -1.1580    -3.5440    -0.7060 hc         1 JB1       0.046200
     66 H07         -2.3230     0.0020     0.9070 ha         1 JB1       0.174000
     67 H06         -4.0840    -1.7240    -0.9570 ha         1 JB1       0.169000
     68 H04         -6.3490    -1.4520    -0.8630 hc         1 JB1       0.051700
     69 H04A        -6.8020    -1.7890     0.8020 hc         1 JB1       0.051700
     70 H03         -6.9080     0.9490    -0.5960 h1         1 JB1       0.049700
     71 HO02        -8.5870    -0.5040    -1.1490 ho         1 JB1       0.442000
     72 H02         -7.9790     1.7680     1.5230 hc         1 JB1       0.062200
     73 H02A        -7.7240     0.1950     2.2670 hc         1 JB1       0.062200
     74 H01         -5.9580     1.6180     3.0210 h1         1 JB1       0.036700
     75 HO01        -4.4920     2.5240     1.3750 ho         1 JB1       0.443000
     76 H19         -3.3730    -0.9830     2.8370 ha         1 JB1       0.168500
     77 H19A        -4.0390     0.4730     3.7850 ha         1 JB1       0.168500
@<TRIPOS>BOND
     1     1     2 1   
     2     1    32 1   
     3     1    33 1   
     4     1    34 1   
     5     2     3 1   
     6     2    35 1   
     7     2    36 1   
     8     3     4 1   
     9     3    37 1   
    10     3    38 1   
    11     4     5 1   
    12     4    39 1   
    13     4    40 1   
    14     5     6 1   
    15     5     9 1   
    16     5    41 1   
    17     6     7 1   
    18     6    42 1   
    19     6    43 1   
    20     7     8 1   
    21     7    44 1   
    22     7    45 1   
    23     8    46 1   
    24     9    10 1   
    25     9    11 1   
    26     9    47 1   
    27    10    48 1   
    28    10    49 1   
    29    10    50 1   
    30    11    12 1   
    31    11    15 1   
    32    11    51 1   
    33    12    13 1   
    34    12    52 1   
    35    12    53 1   
    36    13    14 1   
    37    13    54 1   
    38    13    55 1   
    39    14    15 1   
    40    14    20 1   
    41    14    56 1   
    42    15    16 1   
    43    15    17 1   
    44    16    57 1   
    45    16    58 1   
    46    16    59 1   
    47    17    18 1   
    48    17    60 1   
    49    17    61 1   
    50    18    19 1   
    51    18    62 1   
    52    18    63 1   
    53    19    20 1   
    54    19    64 1   
    55    19    65 1   
    56    20    21 2   
    57    21    22 1   
    58    21    66 1   
    59    22    23 2   
    60    22    67 1   
    61    23    24 1   
    62    23    30 1   
    63    24    25 1   
    64    24    68 1   
    65    24    69 1   
    66    25    26 1   
    67    25    27 1   
    68    25    70 1   
    69    26    71 1   
    70    27    28 1   
    71    27    72 1   
    72    27    73 1   
    73    28    29 1   
    74    28    30 1   
    75    28    74 1   
    76    29    75 1   
    77    30    31 2   
    78    31    76 1   
    79    31    77 1   
@<TRIPOS>SUBSTRUCTURE
     1 JB1         1 TEMP              0 ****  ****    0 ROOT
