@<TRIPOS>MOLECULE
JB2
   62    65     1     0     0
SMALL
bcc


@<TRIPOS>ATOM
      1 O6          -1.8940    -4.6330    -0.9050 o          1 JB2      -0.597500
      2 C6          -2.5090    -3.6030    -1.1250 c          1 JB2       0.657000
      3 C5          -2.1770    -2.2700    -0.7520 cc         1 JB2       0.173800
      4 N7          -1.0950    -1.7780    -0.0700 nc         1 JB2      -0.644000
      5 C8          -1.2780    -0.4910    -0.0090 cd         1 JB2       0.475400
      6 N1          -3.7180    -3.6270    -1.8290 ns         1 JB2      -0.527400
      7 C2          -4.4890    -2.5430    -2.1400 cc         1 JB2       0.697800
      8 N2          -5.6340    -2.7830    -2.7960 nv         1 JB2      -0.950800
      9 N3          -4.1740    -1.3190    -1.7960 nd         1 JB2      -0.679100
     10 C4          -3.0260    -1.2430    -1.1100 cd         1 JB2       0.093800
     11 N9          -2.4430    -0.1100    -0.6290 na         1 JB2      -0.203900
     12 C1          -2.9880     1.2230    -0.7510 c5         1 JB2       0.268800
     13 O4          -1.9480     2.1250    -0.9780 os         1 JB2      -0.362600
     14 C9          -3.7060     1.7200     0.5030 c5         1 JB2       0.045100
     15 O2          -5.0190     1.2460     0.5260 oh         1 JB2      -0.585800
     16 C3          -3.5660     3.2350     0.3310 c5         1 JB2       0.075100
     17 O3          -4.4770     3.7160    -0.6230 oh         1 JB2      -0.592800
     18 C10         -2.1570     3.3330    -0.2370 c5         1 JB2       0.134100
     19 C7          -1.1140     3.4770     0.8550 c3         1 JB2       0.192400
     20 O5           0.1650     3.4200     0.2740 os         1 JB2      -0.536200
     21 P            1.3830     2.7680     1.1750 p5         1 JB2       1.462800
     22 O1P          1.8720     3.7890     2.1540 o          1 JB2      -0.854500
     23 O2P          0.9760     1.4080     1.6530 o          1 JB2      -0.854500
     24 OPP          2.4090     2.6840    -0.1040 os         1 JB2      -0.687800
     25 P2           3.7410     1.7280    -0.1980 p5         1 JB2       1.471800
     26 O3P          4.4710     2.1200    -1.4440 o          1 JB2      -0.850500
     27 O4P          4.4330     1.7000     1.1270 o          1 JB2      -0.850500
     28 O1G          2.9410     0.3160    -0.4570 os         1 JB2      -0.591200
     29 C1G          3.5280    -0.7690    -1.1070 c6         1 JB2       0.385900
     30 O5G          4.6950    -1.2120    -0.4900 os         1 JB2      -0.437600
     31 C5G          4.5460    -1.7040     0.8390 c6         1 JB2       0.108100
     32 C6G          5.9250    -2.1540     1.2800 c3         1 JB2      -0.078100
     33 C2G          2.4670    -1.8670    -1.1370 c6         1 JB2       0.077100
     34 O2G          2.9050    -2.9560    -1.9150 oh         1 JB2      -0.597800
     35 C3G          2.1970    -2.3560     0.2860 c6         1 JB2       0.166100
     36 O3G          1.2390    -3.3770     0.3110 oh         1 JB2      -0.608800
     37 C4G          3.4980    -2.8280     0.9330 c6         1 JB2       0.139500
     38 N4A          3.2420    -3.2420     2.3020 n8         1 JB2      -0.883800
     39 H1          -0.5970     0.2140     0.4530 h5         1 JB2       0.152100
     40 H2          -4.0420    -4.5430    -2.1120 hn         1 JB2       0.303500
     41 H3          -5.7780    -3.6530    -3.2800 hn         1 JB2       0.430300
     42 H4          -6.1440    -1.9890    -3.1450 hn         1 JB2       0.430300
     43 H5          -3.6900     1.1870    -1.5910 h2         1 JB2       0.088700
     44 H6          -3.1480     1.4010     1.3930 h1         1 JB2       0.077700
     45 H7          -5.3490     1.2930     1.4290 ho         1 JB2       0.401000
     46 H8          -3.6590     3.7700     1.2860 h1         1 JB2       0.050700
     47 H9          -5.3470     3.3600    -0.4080 ho         1 JB2       0.402000
     48 H10         -2.0720     4.1750    -0.9310 h1         1 JB2       0.092700
     49 H11         -1.2760     4.4370     1.3580 h1         1 JB2       0.013200
     50 H12         -1.2490     2.6910     1.6070 h1         1 JB2       0.013200
     51 H15          3.8300    -0.4910    -2.1250 h2         1 JB2       0.058700
     52 H16          4.2170    -0.8850     1.4930 h1         1 JB2       0.092700
     53 H17          6.6440    -1.3380     1.1990 hc         1 JB2       0.025367
     54 H18          5.9170    -2.4740     2.3210 hc         1 JB2       0.025367
     55 H19          6.2800    -2.9890     0.6730 hc         1 JB2       0.025367
     56 H20          1.5400    -1.4400    -1.5460 h1         1 JB2       0.048700
     57 H21          2.9440    -2.6750    -2.8340 ho         1 JB2       0.376000
     58 H22          1.8440    -1.4830     0.8580 h1         1 JB2       0.089700
     59 H23          0.3760    -2.9400     0.1830 ho         1 JB2       0.432000
     60 H24          3.8710    -3.7030     0.3870 h1         1 JB2       0.062700
     61 H25          4.0900    -3.5970     2.7260 hn         1 JB2       0.328300
     62 H26          2.9650    -2.4400     2.8580 hn         1 JB2       0.328300
@<TRIPOS>BOND
     1     1     2 2   
     2     2     3 1   
     3     2     6 1   
     4     3     4 1   
     5     3    10 2   
     6     4     5 2   
     7     5    11 1   
     8     5    39 1   
     9     6     7 1   
    10     6    40 1   
    11     7     8 1   
    12     7     9 2   
    13     8    41 1   
    14     8    42 1   
    15     9    10 1   
    16    10    11 1   
    17    11    12 1   
    18    12    13 1   
    19    12    14 1   
    20    12    43 1   
    21    13    18 1   
    22    14    15 1   
    23    14    16 1   
    24    14    44 1   
    25    15    45 1   
    26    16    17 1   
    27    16    18 1   
    28    16    46 1   
    29    17    47 1   
    30    18    19 1   
    31    18    48 1   
    32    19    20 1   
    33    19    49 1   
    34    19    50 1   
    35    20    21 1   
    36    21    22 1   
    37    21    23 1   
    38    21    24 1   
    39    24    25 1   
    40    25    26 1   
    41    25    27 1   
    42    25    28 1   
    43    28    29 1   
    44    29    30 1   
    45    29    33 1   
    46    29    51 1   
    47    30    31 1   
    48    31    32 1   
    49    31    37 1   
    50    31    52 1   
    51    32    53 1   
    52    32    54 1   
    53    32    55 1   
    54    33    34 1   
    55    33    35 1   
    56    33    56 1   
    57    34    57 1   
    58    35    36 1   
    59    35    37 1   
    60    35    58 1   
    61    36    59 1   
    62    37    38 1   
    63    37    60 1   
    64    38    61 1   
    65    38    62 1   
@<TRIPOS>SUBSTRUCTURE
     1 JB2         1 TEMP              0 ****  ****    0 ROOT
