@<TRIPOS>MOLECULE
JB2
   62    65     1     0     0
SMALL
No Charge or Current Charge


@<TRIPOS>ATOM
      1 O6          -4.6690    -1.9530    -5.6780 o          1 JB2      -0.522000
      2 C6          -4.9040    -1.6100    -4.5280 c          1 JB2       0.514500
      3 C5          -4.0940    -0.6750    -3.7060 cc         1 JB2       0.108500
      4 N7          -2.9360    -0.0070    -4.0390 nc         1 JB2      -0.644000
      5 C8          -2.6060     0.6970    -2.9480 cd         1 JB2       0.475400
      6 N1          -5.9870    -2.0720    -3.8430 ns         1 JB2      -0.460400
      7 C2          -6.2770    -1.7200    -2.5700 cc         1 JB2       0.697800
      8 N2          -7.3700    -2.2590    -2.0620 nv         1 JB2      -1.061200
      9 N3          -5.5990    -0.9060    -1.7900 nd         1 JB2      -0.679100
     10 C4          -4.4700    -0.3780    -2.4250 cd         1 JB2       0.108400
     11 N9          -3.5360     0.4980    -1.9290 na         1 JB2      -0.182500
     12 C1          -3.5300     1.0810    -0.5960 c5         1 JB2       0.321300
     13 O4          -2.3670     1.9170    -0.3900 os         1 JB2      -0.409000
     14 C9          -3.5400     0.0300     0.5660 c5         1 JB2       0.068300
     15 O2          -4.8650    -0.3460     0.9860 oh         1 JB2      -0.708000
     16 C3          -2.7370     0.7760     1.6680 c5         1 JB2       0.098300
     17 O3          -3.5750     1.7220     2.3440 oh         1 JB2      -0.715000
     18 C10         -1.6360     1.4400     0.7750 c5         1 JB2       0.157300
     19 C7          -0.4800     0.4700     0.3540 c3         1 JB2       0.215600
     20 O5           0.0910     0.8590    -0.9060 os         1 JB2      -0.559400
     21 P            1.1740     2.0510    -0.9980 p5         1 JB2       1.462800
     22 O1P          1.2940     2.4700    -2.4250 o          1 JB2      -0.854500
     23 O2P          0.8140     3.1820    -0.0940 o          1 JB2      -0.854500
     24 OPP          2.3850     1.2030    -0.4580 os         1 JB2      -0.687800
     25 P2           3.7900     1.7510    -0.8980 p5         1 JB2       1.471800
     26 O3P          4.2100     1.2920    -2.2540 o          1 JB2      -0.850500
     27 O4P          3.9670     3.2190    -0.7000 o          1 JB2      -0.850500
     28 O1G          4.6430     0.9780     0.2230 os         1 JB2      -0.614400
     29 C1G          5.0730    -0.3620    -0.0370 c6         1 JB2       0.432300
     30 O5G          5.9430    -0.7590     1.0460 os         1 JB2      -0.484000
     31 C5G          5.3000    -0.8270     2.3420 c6         1 JB2       0.131300
     32 C6G          6.4150    -1.1820     3.3610 c3         1 JB2      -0.078100
     33 C2G          3.9120    -1.4250    -0.2040 c6         1 JB2       0.100300
     34 O2G          4.4030    -2.7450    -0.5810 oh         1 JB2      -0.720000
     35 C3G          3.1370    -1.5440     1.1430 c6         1 JB2       0.189300
     36 O3G          2.1440    -2.5780     0.9950 oh         1 JB2      -0.671000
     37 C4G          4.1240    -1.8640     2.3280 c6         1 JB2       0.139500
     38 N4A          3.4250    -1.9400     3.6550 n8         1 JB2      -0.994200
     39 H1          -1.7460     1.3490    -2.8290 h5         1 JB2       0.152100
     40 H2          -6.5810    -2.7290    -4.3220 hn         1 JB2       0.303500
     41 H3          -8.0970    -2.5220    -2.7150 hn         1 JB2       0.485500
     42 H4          -7.6910    -1.8270    -1.2040 hn         1 JB2       0.485500
     43 H5          -4.4270     1.7100    -0.5390 h2         1 JB2       0.088700
     44 H6          -2.9920    -0.8690     0.2480 h1         1 JB2       0.077700
     45 H7          -5.3220    -0.6590     0.1570 ho         1 JB2       0.500000
     46 H8          -2.2980     0.0720     2.3890 h1         1 JB2       0.050700
     47 H9          -4.4720     1.3060     2.3150 ho         1 JB2       0.501000
     48 H10         -1.1870     2.3010     1.2870 h1         1 JB2       0.092700
     49 H11          0.2820     0.4620     1.1440 h1         1 JB2       0.013200
     50 H12         -0.8620    -0.5540     0.2720 h1         1 JB2       0.013200
     51 H15          5.6670    -0.3610    -0.9640 h2         1 JB2       0.058700
     52 H16          4.9070     0.1700     2.5980 h1         1 JB2       0.092700
     53 H17          7.2470    -0.4690     3.2970 hc         1 JB2       0.025367
     54 H18          6.0420    -1.1510     4.3920 hc         1 JB2       0.025367
     55 H19          6.8180    -2.1850     3.1790 hc         1 JB2       0.025367
     56 H20          3.2170    -1.0760    -0.9800 h1         1 JB2       0.048700
     57 H21          4.8880    -2.6490    -1.4340 ho         1 JB2       0.475000
     58 H22          2.6510    -0.5800     1.3550 h1         1 JB2       0.089700
     59 H23          2.5970    -3.2390     0.4220 ho         1 JB2       0.471000
     60 H24          4.5650    -2.8570     2.1460 h1         1 JB2       0.062700
     61 H25          4.1240    -2.0640     4.3950 hn         1 JB2       0.383500
     62 H26          2.9970    -1.0310     3.8660 hn         1 JB2       0.383500
@<TRIPOS>BOND
     1     1     2 2   
     2     2     3 1   
     3     2     6 1   
     4     3     4 1   
     5     3    10 2   
     6     4     5 2   
     7     5    11 1   
     8     5    39 1   
     9     6     7 1   
    10     6    40 1   
    11     7     8 1   
    12     7     9 2   
    13     8    41 1   
    14     8    42 1   
    15     9    10 1   
    16    10    11 1   
    17    11    12 1   
    18    12    13 1   
    19    12    14 1   
    20    12    43 1   
    21    13    18 1   
    22    14    15 1   
    23    14    16 1   
    24    14    44 1   
    25    15    45 1   
    26    16    17 1   
    27    16    18 1   
    28    16    46 1   
    29    17    47 1   
    30    18    19 1   
    31    18    48 1   
    32    19    20 1   
    33    19    49 1   
    34    19    50 1   
    35    20    21 1   
    36    21    22 1   
    37    21    23 1   
    38    21    24 1   
    39    24    25 1   
    40    25    26 1   
    41    25    27 1   
    42    25    28 1   
    43    28    29 1   
    44    29    30 1   
    45    29    33 1   
    46    29    51 1   
    47    30    31 1   
    48    31    32 1   
    49    31    37 1   
    50    31    52 1   
    51    32    53 1   
    52    32    54 1   
    53    32    55 1   
    54    33    34 1   
    55    33    35 1   
    56    33    56 1   
    57    34    57 1   
    58    35    36 1   
    59    35    37 1   
    60    35    58 1   
    61    36    59 1   
    62    37    38 1   
    63    37    60 1   
    64    38    61 1   
    65    38    62 1   
@<TRIPOS>SUBSTRUCTURE
     1 JB2         1 TEMP              0 ****  ****    0 ROOT
