@<TRIPOS>MOLECULE
JB3
   67    70     1     0     0
SMALL
No Charge or Current Charge


@<TRIPOS>ATOM
      1 O4A         -6.3890     3.2490    -1.4510 o          1 JB3      -0.631100
      2 C4A         -5.2850     3.5330    -1.0110 c          1 JB3       0.607100
      3 C5A         -4.7350     4.9540    -1.0310 c3         1 JB3      -0.181100
      4 N4A         -4.4400     2.5970    -0.4620 ns         1 JB3      -0.482900
      5 C4G         -4.7190     1.1480    -0.3250 c6         1 JB3       0.080700
      6 C5G         -5.3320     0.7920     1.0680 c6         1 JB3       0.163300
      7 C6G         -6.7030     1.4640     1.3360 c3         1 JB3      -0.076100
      8 O5G         -5.5530    -0.6350     1.1800 os         1 JB3      -0.472000
      9 C3G         -3.4160     0.3130    -0.5380 c6         1 JB3       0.162300
     10 O3G         -2.8900     0.5250    -1.8590 oh         1 JB3      -0.659000
     11 C2G         -3.6920    -1.2090    -0.3480 c6         1 JB3       0.104300
     12 O2G         -4.5360    -1.6680    -1.4420 oh         1 JB3      -0.720000
     13 C1G         -4.3580    -1.4370     1.0690 c6         1 JB3       0.418300
     14 O1G         -3.5270    -1.1310     2.1960 os         1 JB3      -0.598400
     15 P2          -2.1700    -1.9650     2.4060 p5         1 JB3       1.462800
     16 O3P         -2.3350    -3.3350     1.8420 o          1 JB3      -0.840500
     17 O4P         -1.8280    -1.9690     3.8580 o          1 JB3      -0.840500
     18 OPP         -1.2580    -1.0280     1.5330 os         1 JB3      -0.689800
     19 P            0.2770    -1.2860     1.7540 p5         1 JB3       1.457800
     20 O1P          0.7010    -2.7140     1.7550 o          1 JB3      -0.849000
     21 O2P          0.8250    -0.5220     2.9120 o          1 JB3      -0.849000
     22 O5           0.7670    -0.5690     0.3970 os         1 JB3      -0.560400
     23 C5           0.5630    -1.2110    -0.8720 c3         1 JB3       0.215600
     24 C4           1.9210    -1.5190    -1.5810 c5         1 JB3       0.157300
     25 O4           2.7340    -0.3150    -1.6560 os         1 JB3      -0.410000
     26 C3           2.8310    -2.6030    -0.9070 c5         1 JB3       0.097300
     27 O3           3.7040    -3.2520    -1.8420 oh         1 JB3      -0.715000
     28 C2           3.6640    -1.7260     0.0670 c5         1 JB3       0.068300
     29 O2           4.8670    -2.4030     0.4910 oh         1 JB3      -0.709000
     30 C1           3.9190    -0.4740    -0.8400 c5         1 JB3       0.321300
     31 N9           4.2180     0.7900    -0.1710 na         1 JB3      -0.181500
     32 C8           3.6010     1.2900     0.9620 cc         1 JB3       0.462400
     33 N7           4.1480     2.4460     1.3420 nd         1 JB3      -0.611000
     34 C9           5.2090     1.6780    -0.5040 cc         1 JB3       0.105400
     35 C7           5.1610     2.6930     0.4220 cd         1 JB3       0.104500
     36 N3           6.1060     1.6050    -1.5520 nc         1 JB3      -0.675100
     37 C10          6.9320     2.6230    -1.5940 cd         1 JB3       0.689800
     38 N2           7.8090     2.6110    -2.5840 nv         1 JB3      -1.054200
     39 N1           6.9780     3.6740    -0.7490 ns         1 JB3      -0.459400
     40 C6           6.1340     3.8220     0.3150 c          1 JB3       0.518500
     41 O6           6.2030     4.7830     1.0700 o          1 JB3      -0.545000
     42 H1          -5.4330     5.6720    -1.4760 hc         1 JB3       0.048700
     43 H2          -4.4530     5.2430    -0.0120 hc         1 JB3       0.048700
     44 H3          -3.7680     4.9560    -1.5480 hc         1 JB3       0.048700
     45 H4          -3.5350     2.9390    -0.1630 hn         1 JB3       0.313500
     46 H5          -5.4450     0.8580    -1.0990 h1         1 JB3       0.098700
     47 H6          -4.6410     1.1110     1.8630 h1         1 JB3       0.088700
     48 H7          -7.4230     1.2340     0.5410 hc         1 JB3       0.034033
     49 H8          -7.1300     1.1210     2.2860 hc         1 JB3       0.034033
     50 H9          -6.6070     2.5540     1.3990 hc         1 JB3       0.034033
     51 H10         -2.6780     0.6330     0.2120 h1         1 JB3       0.069700
     52 H11         -3.3620    -0.1430    -2.4060 ho         1 JB3       0.430000
     53 H12         -2.7350    -1.7470    -0.3920 h1         1 JB3       0.044700
     54 H13         -4.6460    -2.6430    -1.3450 ho         1 JB3       0.489000
     55 H14         -4.6530    -2.4960     1.1370 h2         1 JB3       0.076700
     56 H17         -0.0040    -2.1450    -0.7680 h1         1 JB3       0.013200
     57 H18         -0.0230    -0.5500    -1.5230 h1         1 JB3       0.013200
     58 H19          1.6720    -1.8310    -2.6050 h1         1 JB3       0.093700
     59 H20          2.2330    -3.3510    -0.3680 h1         1 JB3       0.050700
     60 H21          4.5580    -3.3360    -1.3500 ho         1 JB3       0.501000
     61 H22          3.0670    -1.4470     0.9430 h1         1 JB3       0.077700
     62 H23          4.6480    -2.9210     1.3030 ho         1 JB3       0.500000
     63 H24          4.7710    -0.6810    -1.4990 h2         1 JB3       0.089700
     64 H25          2.7720     0.7850     1.4460 h5         1 JB3       0.150100
     65 H26          7.6110     1.9240    -3.3010 hn         1 JB3       0.482000
     66 H27          8.1550     3.5030    -2.9150 hn         1 JB3       0.482000
     67 H28          7.6740     4.3910    -0.8740 hn         1 JB3       0.302500
@<TRIPOS>BOND
     1     1     2 2   
     2     2     3 1   
     3     2     4 1   
     4     3    42 1   
     5     3    43 1   
     6     3    44 1   
     7     4     5 1   
     8     4    45 1   
     9     5     6 1   
    10     5     9 1   
    11     5    46 1   
    12     6     7 1   
    13     6     8 1   
    14     6    47 1   
    15     7    48 1   
    16     7    49 1   
    17     7    50 1   
    18     8    13 1   
    19     9    10 1   
    20     9    11 1   
    21     9    51 1   
    22    10    52 1   
    23    11    12 1   
    24    11    13 1   
    25    11    53 1   
    26    12    54 1   
    27    13    14 1   
    28    13    55 1   
    29    14    15 1   
    30    15    16 1   
    31    15    17 1   
    32    15    18 1   
    33    18    19 1   
    34    19    20 1   
    35    19    21 1   
    36    19    22 1   
    37    22    23 1   
    38    23    24 1   
    39    23    56 1   
    40    23    57 1   
    41    24    25 1   
    42    24    26 1   
    43    24    58 1   
    44    25    30 1   
    45    26    27 1   
    46    26    28 1   
    47    26    59 1   
    48    27    60 1   
    49    28    29 1   
    50    28    30 1   
    51    28    61 1   
    52    29    62 1   
    53    30    31 1   
    54    30    63 1   
    55    31    32 1   
    56    31    34 1   
    57    32    33 2   
    58    32    64 1   
    59    33    35 1   
    60    34    35 2   
    61    34    36 1   
    62    35    40 1   
    63    36    37 2   
    64    37    38 1   
    65    37    39 1   
    66    38    65 1   
    67    38    66 1   
    68    39    40 1   
    69    39    67 1   
    70    40    41 2   
@<TRIPOS>SUBSTRUCTURE
     1 JB3         1 TEMP              0 ****  ****    0 ROOT
