@<TRIPOS>MOLECULE
JB3
   67    70     1     0     0
SMALL
abcg2


@<TRIPOS>ATOM
      1 O4A         -6.5220     4.7270    -0.3620 o          1 JB3      -0.631100
      2 C4A         -5.5040     4.6290     0.3100 c          1 JB3       0.607100
      3 C5A         -4.9360     5.8080     1.0610 c3         1 JB3      -0.181100
      4 N4A         -4.8020     3.4880     0.4340 ns         1 JB3      -0.482900
      5 C4G         -5.0840     2.2640    -0.2740 c6         1 JB3       0.080700
      6 C5G         -5.1460     1.0930     0.7170 c6         1 JB3       0.163300
      7 C6G         -6.3120     1.2090     1.6770 c3         1 JB3      -0.076100
      8 O5G         -5.3020    -0.1380     0.0260 os         1 JB3      -0.472000
      9 C3G         -4.0150     2.0050    -1.3350 c6         1 JB3       0.162300
     10 O3G         -4.0470     3.0610    -2.2590 oh         1 JB3      -0.659000
     11 C2G         -4.2410     0.6460    -1.9930 c6         1 JB3       0.104300
     12 O2G         -5.4450     0.7030    -2.7150 oh         1 JB3      -0.720000
     13 C1G         -4.3200    -0.4390    -0.9160 c6         1 JB3       0.418300
     14 O1G         -3.0500    -0.5630    -0.3470 os         1 JB3      -0.598400
     15 P2          -2.7950    -1.7140     0.8200 p5         1 JB3       1.462800
     16 O3P         -3.5700    -2.9420     0.4670 o          1 JB3      -0.840500
     17 O4P         -2.8960    -1.0870     2.1720 o          1 JB3      -0.840500
     18 OPP         -1.2090    -1.9100     0.4260 os         1 JB3      -0.689800
     19 P           -0.0900    -2.4580     1.4920 p5         1 JB3       1.457800
     20 O1P         -0.6610    -3.5490     2.3410 o          1 JB3      -0.849000
     21 O2P          0.6270    -1.3060     2.1300 o          1 JB3      -0.849000
     22 O5           0.8630    -3.1080     0.3170 os         1 JB3      -0.560400
     23 C5           2.1510    -3.5410     0.6840 c3         1 JB3       0.215600
     24 C4           3.0850    -3.3750    -0.5010 c5         1 JB3       0.157300
     25 O4           3.0660    -2.0270    -0.9800 os         1 JB3      -0.410000
     26 C3           4.5300    -3.6600    -0.1180 c5         1 JB3       0.097300
     27 O3           5.2320    -4.0830    -1.2580 oh         1 JB3      -0.715000
     28 C2           4.9880    -2.2670     0.3240 c5         1 JB3       0.068300
     29 O2           6.3650    -2.0490     0.2680 oh         1 JB3      -0.709000
     30 C1           4.2750    -1.3850    -0.7010 c5         1 JB3       0.321300
     31 N9           4.0080    -0.0470    -0.2340 na         1 JB3      -0.181500
     32 C8           3.0690     0.3420     0.6930 cc         1 JB3       0.462400
     33 N7           3.0990     1.6200     0.9230 nd         1 JB3      -0.611000
     34 C9           4.6730     1.0780    -0.6120 cc         1 JB3       0.105400
     35 C7           4.0990     2.1020     0.1190 cd         1 JB3       0.104500
     36 N3           5.6600     1.1540    -1.5170 nc         1 JB3      -0.675100
     37 C10          6.1090     2.3710    -1.6890 cd         1 JB3       0.689800
     38 N2           7.1230     2.5980    -2.5400 nv         1 JB3      -1.054200
     39 N1           5.6210     3.4480    -1.0070 ns         1 JB3      -0.459400
     40 C6           4.5880     3.4270    -0.0610 c          1 JB3       0.518500
     41 O6           4.2250     4.4570     0.4830 o          1 JB3      -0.545000
     42 H1          -5.7390     6.3590     1.5470 hc         1 JB3       0.048700
     43 H2          -4.1970     5.5310     1.8110 hc         1 JB3       0.048700
     44 H3          -4.4570     6.4840     0.3510 hc         1 JB3       0.048700
     45 H4          -3.9550     3.5140     0.9830 hn         1 JB3       0.313500
     46 H5          -6.0570     2.3780    -0.7560 h1         1 JB3       0.098700
     47 H6          -4.2170     1.0740     1.3000 h1         1 JB3       0.088700
     48 H7          -7.2640     1.2480     1.1430 hc         1 JB3       0.034033
     49 H8          -6.3310     0.3570     2.3570 hc         1 JB3       0.034033
     50 H9          -6.2250     2.1110     2.2810 hc         1 JB3       0.034033
     51 H10         -3.0410     1.9650    -0.8280 h1         1 JB3       0.069700
     52 H11         -3.2500     3.0180    -2.7970 ho         1 JB3       0.430000
     53 H12         -3.3920     0.4210    -2.6550 h1         1 JB3       0.044700
     54 H13         -5.5430    -0.1180    -3.2080 ho         1 JB3       0.489000
     55 H14         -4.6360    -1.3900    -1.3630 h2         1 JB3       0.076700
     56 H17          2.5340    -2.9820     1.5460 h1         1 JB3       0.013200
     57 H18          2.1420    -4.5990     0.9670 h1         1 JB3       0.013200
     58 H19          2.7570    -4.0290    -1.3150 h1         1 JB3       0.093700
     59 H20          4.6010    -4.3920     0.6970 h1         1 JB3       0.050700
     60 H21          6.1720    -3.9330    -1.1000 ho         1 JB3       0.501000
     61 H22          4.5860    -2.0610     1.3240 h1         1 JB3       0.077700
     62 H23          6.7650    -2.3820     1.0770 ho         1 JB3       0.500000
     63 H24          4.8940    -1.2800    -1.5990 h2         1 JB3       0.089700
     64 H25          2.3720    -0.3540     1.1440 h5         1 JB3       0.150100
     65 H26          7.3680     1.8480    -3.1660 hn         1 JB3       0.482000
     66 H27          7.3000     3.5270    -2.8850 hn         1 JB3       0.482000
     67 H28          6.0370     4.3540    -1.1790 hn         1 JB3       0.302500
@<TRIPOS>BOND
     1     1     2 2   
     2     2     3 1   
     3     2     4 1   
     4     3    42 1   
     5     3    43 1   
     6     3    44 1   
     7     4     5 1   
     8     4    45 1   
     9     5     6 1   
    10     5     9 1   
    11     5    46 1   
    12     6     7 1   
    13     6     8 1   
    14     6    47 1   
    15     7    48 1   
    16     7    49 1   
    17     7    50 1   
    18     8    13 1   
    19     9    10 1   
    20     9    11 1   
    21     9    51 1   
    22    10    52 1   
    23    11    12 1   
    24    11    13 1   
    25    11    53 1   
    26    12    54 1   
    27    13    14 1   
    28    13    55 1   
    29    14    15 1   
    30    15    16 1   
    31    15    17 1   
    32    15    18 1   
    33    18    19 1   
    34    19    20 1   
    35    19    21 1   
    36    19    22 1   
    37    22    23 1   
    38    23    24 1   
    39    23    56 1   
    40    23    57 1   
    41    24    25 1   
    42    24    26 1   
    43    24    58 1   
    44    25    30 1   
    45    26    27 1   
    46    26    28 1   
    47    26    59 1   
    48    27    60 1   
    49    28    29 1   
    50    28    30 1   
    51    28    61 1   
    52    29    62 1   
    53    30    31 1   
    54    30    63 1   
    55    31    32 1   
    56    31    34 1   
    57    32    33 2   
    58    32    64 1   
    59    33    35 1   
    60    34    35 2   
    61    34    36 1   
    62    35    40 1   
    63    36    37 2   
    64    37    38 1   
    65    37    39 1   
    66    38    65 1   
    67    38    66 1   
    68    39    40 1   
    69    39    67 1   
    70    40    41 2   
@<TRIPOS>SUBSTRUCTURE
     1 JB3         1 TEMP              0 ****  ****    0 ROOT
