@<TRIPOS>MOLECULE
JB5
   18    19     1     0     0
SMALL
No Charge or Current Charge


@<TRIPOS>ATOM
      1 C10          0.2980    -0.6160    -0.0070 ca         1 JB5       0.274000
      2 N01         -3.3850    -0.6550    -0.0660 nv         1 JB5      -1.087000
      3 C02         -2.1010    -0.1840    -0.0530 ca         1 JB5       0.321000
      4 C03         -1.8610     1.1950    -0.0710 ca         1 JB5      -0.158000
      5 C04         -0.5430     1.6830    -0.0580 ca         1 JB5      -0.035000
      6 C05          0.5520     0.7990    -0.0250 ca         1 JB5       0.180000
      7 N06          1.8180     1.2980    -0.0130 nb         1 JB5      -0.613000
      8 C07          2.8240     0.3830     0.0180 ca         1 JB5       0.272900
      9 C08          2.5740    -1.0100     0.0370 ca         1 JB5       0.308900
     10 N09          1.3130    -1.5200     0.0240 nb         1 JB5      -0.640000
     11 C11         -1.0280    -1.0800    -0.0210 ca         1 JB5      -0.184000
     12 H1          -4.1640    -0.0090     0.0590 hn         1 JB5       0.463500
     13 H2          -3.5670    -1.6440     0.0970 hn         1 JB5       0.463500
     14 H3          -2.6930     1.8950    -0.0970 ha         1 JB5       0.117000
     15 H4          -0.3670     2.7550    -0.0730 ha         1 JB5       0.132000
     16 H5           3.8420     0.7690     0.0290 h4         1 JB5       0.028100
     17 H6           3.3950    -1.7260     0.0610 h4         1 JB5       0.025100
     18 H7          -1.2170    -2.1480    -0.0080 ha         1 JB5       0.132000
@<TRIPOS>BOND
     1     1     6 ar  
     2     1    10 ar  
     3     1    11 ar  
     4     2     3 1   
     5     2    12 1   
     6     2    13 1   
     7     3     4 ar  
     8     3    11 ar  
     9     4     5 ar  
    10     4    14 1   
    11     5     6 ar  
    12     5    15 1   
    13     6     7 ar  
    14     7     8 ar  
    15     8     9 ar  
    16     8    16 1   
    17     9    10 ar  
    18     9    17 1   
    19    11    18 1   
@<TRIPOS>SUBSTRUCTURE
     1 JB5         1 TEMP              0 ****  ****    0 ROOT
