@<TRIPOS>MOLECULE
JB5
   18    19     1     0     0
SMALL
bcc


@<TRIPOS>ATOM
      1 C10          0.2950    -0.6140    -0.0140 ca         1 JB5       0.339300
      2 N01         -3.3860    -0.6400    -0.1400 nv         1 JB5      -0.838200
      3 C02         -2.0910    -0.2130    -0.0690 ca         1 JB5       0.182600
      4 C03         -1.8250     1.1890    -0.0820 ca         1 JB5      -0.176000
      5 C04         -0.5510     1.6690    -0.0610 ca         1 JB5      -0.118300
      6 C05          0.5500     0.7820    -0.0280 ca         1 JB5       0.245300
      7 N06          1.8070     1.2670    -0.0090 nb         1 JB5      -0.613000
      8 C07          2.7800     0.3950     0.0240 ca         1 JB5       0.272900
      9 C08          2.5320    -0.9940     0.0400 ca         1 JB5       0.308900
     10 N09          1.3260    -1.4930     0.0210 nb         1 JB5      -0.640000
     11 C11         -1.0250    -1.0930    -0.0320 ca         1 JB5      -0.267300
     12 H1          -4.1020     0.0020     0.1550 hn         1 JB5       0.408300
     13 H2          -3.5740    -1.5960     0.1150 hn         1 JB5       0.408300
     14 H3          -2.6600     1.8780    -0.1100 ha         1 JB5       0.135000
     15 H4          -0.3630     2.7350    -0.0700 ha         1 JB5       0.150000
     16 H5           3.7990     0.7660     0.0400 h4         1 JB5       0.028100
     17 H6           3.3640    -1.6890     0.0690 h4         1 JB5       0.025100
     18 H7          -1.1870    -2.1640    -0.0170 ha         1 JB5       0.150000
@<TRIPOS>BOND
     1     1     6 ar  
     2     1    10 ar  
     3     1    11 ar  
     4     2     3 1   
     5     2    12 1   
     6     2    13 1   
     7     3     4 ar  
     8     3    11 ar  
     9     4     5 ar  
    10     4    14 1   
    11     5     6 ar  
    12     5    15 1   
    13     6     7 ar  
    14     7     8 ar  
    15     8     9 ar  
    16     8    16 1   
    17     9    10 ar  
    18     9    17 1   
    19    11    18 1   
@<TRIPOS>SUBSTRUCTURE
     1 JB5         1 TEMP              0 ****  ****    0 ROOT
