@<TRIPOS>MOLECULE
JB6
   85    90     1     0     0
SMALL
No Charge or Current Charge


@<TRIPOS>ATOM
      1 N46         -9.4590    -1.0340     0.4770 nv         1 JB6      -1.061900
      2 C43         -8.9130     0.1080    -0.0200 ca         1 JB6       0.451900
      3 N44         -9.6420     1.2240     0.1290 nb         1 JB6      -0.303000
      4 C47         -9.0980     2.3580    -0.3710 ca         1 JB6       0.183900
      5 N41         -7.9010     2.4730    -0.9950 nb         1 JB6      -0.223000
      6 C38         -7.1860     1.3370    -1.1220 ca         1 JB6       0.120500
      7 C39         -7.6510     0.1340    -0.6540 ca         1 JB6      -0.098600
      8 N40         -6.7660    -0.9090    -0.8960 nc         1 JB6      -0.552100
      9 C37         -5.7610    -0.2810    -1.5320 cd         1 JB6       0.411700
     10 N36         -5.9540     1.1060    -1.6850 na         1 JB6      -0.313300
     11 C32         -5.0660     2.0550    -2.3680 c5         1 JB6       0.324300
     12 O33         -3.7880     1.4130    -2.5980 os         1 JB6      -0.448000
     13 C31         -4.7090     3.3640    -1.5840 c5         1 JB6       0.103300
     14 O35         -4.1420     4.4060    -2.3970 oh         1 JB6      -0.701000
     15 C30         -3.6270     2.8000    -0.6270 c5         1 JB6       0.094300
     16 O34         -2.8220     3.8640    -0.0870 oh         1 JB6      -0.708000
     17 C29         -2.8390     1.8470    -1.5910 c5         1 JB6       0.160300
     18 C28         -2.2120     0.6160    -0.8990 c3         1 JB6      -0.086400
     19 C4          -1.4730    -0.3280    -1.8780 c3         1 JB6       0.207600
     20 O10         -0.8300    -1.4000    -1.1640 os         1 JB6      -0.570400
     21 P6          -1.6600    -2.4810    -0.2970 p5         1 JB6       1.136200
     22 S8          -0.2950    -4.0570    -0.1220 sh         1 JB6      -0.542200
     23 O9          -2.9640    -2.8760    -0.8930 o          1 JB6      -0.480000
     24 O4          -1.7550    -1.8480     1.1930 os         1 JB6      -0.553400
     25 C2          -0.7110    -1.8090     2.1940 c3         1 JB6       0.168600
     26 C1           0.4910    -0.9350     1.7300 c3         1 JB6       0.155300
     27 O1           1.4440    -1.7120     0.9820 oh         1 JB6      -0.633000
     28 C3           1.2330    -0.2680     2.9120 c3         1 JB6       0.163600
     29 O5           2.3770     0.3890     2.3520 os         1 JB6      -0.545400
     30 P7           3.5280     1.0090     3.2890 p5         1 JB6       1.133200
     31 S13          4.7180     1.9300     1.8400 sh         1 JB6      -0.540200
     32 O12          3.0490     1.9070     4.3750 o          1 JB6      -0.488000
     33 O14          4.4020    -0.2690     3.7750 os         1 JB6      -0.551400
     34 C5           5.4090    -0.9710     3.0080 c3         1 JB6       0.195600
     35 C6           4.7620    -1.8390     1.8890 c5         1 JB6       0.156300
     36 O11          4.2520    -0.9790     0.8300 os         1 JB6      -0.450000
     37 C7           5.7740    -2.8120     1.1870 c5         1 JB6       0.112300
     38 O15          5.1490    -4.0140     0.7140 oh         1 JB6      -0.699000
     39 C8           6.2330    -1.9340    -0.0120 c5         1 JB6       0.085300
     40 O17          6.8830    -2.7180    -1.0320 oh         1 JB6      -0.690000
     41 C9           4.8450    -1.3500    -0.4310 c5         1 JB6       0.315300
     42 N18          4.8330    -0.1810    -1.3110 na         1 JB6      -0.294300
     43 C19          5.9010     0.2610    -2.1010 cc         1 JB6       0.408700
     44 N22          5.5720     1.3610    -2.8050 nd         1 JB6      -0.538100
     45 C21          4.2460     1.5980    -2.4290 ca         1 JB6      -0.103600
     46 C20          3.7840     0.6700    -1.5310 ca         1 JB6       0.141500
     47 N25          2.5280     0.7090    -1.0400 nb         1 JB6      -0.219000
     48 C26          1.7520     1.7250    -1.4870 ca         1 JB6       0.184900
     49 N24          2.1090     2.6880    -2.3710 nb         1 JB6      -0.301000
     50 C23          3.3660     2.6210    -2.8400 ca         1 JB6       0.451900
     51 N27          3.7270     3.5840    -3.7310 nv         1 JB6      -1.062900
     52 H1          -8.8360    -1.8330     0.5700 hn         1 JB6       0.507000
     53 H2         -10.2010    -0.9510     1.1670 hn         1 JB6       0.507000
     54 H3          -9.6800     3.2710    -0.2600 h5         1 JB6       0.047100
     55 H4          -4.8680    -0.7670    -1.9100 h5         1 JB6       0.071800
     56 H5          -5.5560     2.2940    -3.3210 h2         1 JB6       0.128700
     57 H6          -5.5710     3.7470    -1.0210 h1         1 JB6       0.083700
     58 H7          -3.4120     4.7560    -1.8270 ho         1 JB6       0.525000
     59 H8          -4.1060     2.2270     0.1810 h1         1 JB6       0.059700
     60 H9          -2.4290     3.5440     0.7620 ho         1 JB6       0.521000
     61 H10         -2.0420     2.4050    -2.1030 h1         1 JB6       0.083700
     62 H11         -1.5030     0.9590    -0.1380 hc         1 JB6       0.069700
     63 H12         -3.0020     0.0680    -0.3730 hc         1 JB6       0.069700
     64 H13         -2.1870    -0.7290    -2.6100 h1         1 JB6       0.061700
     65 H14         -0.7240     0.2490    -2.4360 h1         1 JB6       0.061700
     66 H15          0.5820    -3.0670     0.1850 hs         1 JB6       0.322800
     67 H16         -1.1230    -1.3750     3.1140 h1         1 JB6       0.062700
     68 H17         -0.3630    -2.8180     2.4520 h1         1 JB6       0.062700
     69 H18          0.1000    -0.1190     1.1090 h1         1 JB6       0.107700
     70 H19          2.2700    -1.1670     0.9690 ho         1 JB6       0.451000
     71 H20          0.5710     0.4510     3.4130 h1         1 JB6       0.058700
     72 H21          1.5350    -1.0340     3.6400 h1         1 JB6       0.058700
     73 H22          4.3520     0.8490     1.1020 hs         1 JB6       0.331800
     74 H23          6.1440    -0.2820     2.5720 h1         1 JB6       0.056200
     75 H24          5.9640    -1.6400     3.6780 h1         1 JB6       0.056200
     76 H25          3.9320    -2.4050     2.3340 h1         1 JB6       0.114700
     77 H26          6.6190    -3.0600     1.8460 h1         1 JB6       0.056700
     78 H27          5.6360    -4.2430    -0.1160 ho         1 JB6       0.527000
     79 H28          6.8930    -1.1240     0.3290 h1         1 JB6       0.050700
     80 H29          7.8450    -2.7690    -0.8070 ho         1 JB6       0.518000
     81 H30          4.2360    -2.1220    -0.9180 h2         1 JB6       0.125700
     82 H31          6.8610    -0.2430    -2.1250 h5         1 JB6       0.069800
     83 H32          0.7380     1.7730    -1.0930 h5         1 JB6       0.047100
     84 H33          2.9880     4.0980    -4.2020 hn         1 JB6       0.507500
     85 H34          4.5850     3.4300    -4.2560 hn         1 JB6       0.507500
@<TRIPOS>BOND
     1     1     2 1   
     2     1    52 1   
     3     1    53 1   
     4     2     3 ar  
     5     2     7 ar  
     6     3     4 ar  
     7     4     5 ar  
     8     4    54 1   
     9     5     6 ar  
    10     6     7 ar  
    11     6    10 1   
    12     7     8 1   
    13     8     9 2   
    14     9    10 1   
    15     9    55 1   
    16    10    11 1   
    17    11    12 1   
    18    11    13 1   
    19    11    56 1   
    20    12    17 1   
    21    13    14 1   
    22    13    15 1   
    23    13    57 1   
    24    14    58 1   
    25    15    16 1   
    26    15    17 1   
    27    15    59 1   
    28    16    60 1   
    29    17    18 1   
    30    17    61 1   
    31    18    19 1   
    32    18    62 1   
    33    18    63 1   
    34    19    20 1   
    35    19    64 1   
    36    19    65 1   
    37    20    21 1   
    38    21    22 1   
    39    21    23 2   
    40    21    24 1   
    41    22    66 1   
    42    24    25 1   
    43    25    26 1   
    44    25    67 1   
    45    25    68 1   
    46    26    27 1   
    47    26    28 1   
    48    26    69 1   
    49    27    70 1   
    50    28    29 1   
    51    28    71 1   
    52    28    72 1   
    53    29    30 1   
    54    30    31 1   
    55    30    32 2   
    56    30    33 1   
    57    31    73 1   
    58    33    34 1   
    59    34    35 1   
    60    34    74 1   
    61    34    75 1   
    62    35    36 1   
    63    35    37 1   
    64    35    76 1   
    65    36    41 1   
    66    37    38 1   
    67    37    39 1   
    68    37    77 1   
    69    38    78 1   
    70    39    40 1   
    71    39    41 1   
    72    39    79 1   
    73    40    80 1   
    74    41    42 1   
    75    41    81 1   
    76    42    43 1   
    77    42    46 1   
    78    43    44 2   
    79    43    82 1   
    80    44    45 1   
    81    45    46 ar  
    82    45    50 ar  
    83    46    47 ar  
    84    47    48 ar  
    85    48    49 ar  
    86    48    83 1   
    87    49    50 ar  
    88    50    51 1   
    89    51    84 1   
    90    51    85 1   
@<TRIPOS>SUBSTRUCTURE
     1 JB6         1 TEMP              0 ****  ****    0 ROOT
