@<TRIPOS>MOLECULE
JB6
   85    90     1     0     0
SMALL
bcc


@<TRIPOS>ATOM
      1 N46        -11.0370     3.9000     2.8950 nv         1 JB6      -0.951500
      2 C43        -11.1400     3.1230     1.8160 ca         1 JB6       0.780200
      3 N44        -12.3130     3.0360     1.1800 nb         1 JB6      -0.829000
      4 C47        -12.4170     2.2500     0.1110 ca         1 JB6       0.709900
      5 N41        -11.4850     1.5030    -0.4530 nb         1 JB6      -0.749000
      6 C38        -10.3220     1.6020     0.1900 ca         1 JB6       0.448800
      7 C39        -10.0610     2.3710     1.3130 ca         1 JB6      -0.229200
      8 N40         -8.7570     2.2290     1.7060 nc         1 JB6      -0.552100
      9 C37         -8.2480     1.3980     0.8430 cd         1 JB6       0.411700
     10 N36         -9.1430     0.9830    -0.1040 na         1 JB6      -0.284000
     11 C32         -8.9400     0.0540    -1.2120 c5         1 JB6       0.271800
     12 O33         -7.7170    -0.5940    -1.0490 os         1 JB6      -0.401600
     13 C31         -8.8770     0.7870    -2.5500 c5         1 JB6       0.080100
     14 O35         -9.2650    -0.1170    -3.5470 oh         1 JB6      -0.578800
     15 C30         -7.3790     1.0950    -2.6400 c5         1 JB6       0.071100
     16 O34         -6.9120     1.2630    -3.9480 oh         1 JB6      -0.585800
     17 C29         -6.7650    -0.1600    -2.0230 c5         1 JB6       0.137100
     18 C28         -5.4080     0.0640    -1.3880 c3         1 JB6      -0.086400
     19 C4          -4.8440    -1.2070    -0.7880 c3         1 JB6       0.184400
     20 O10         -3.5100    -0.9230    -0.3350 os         1 JB6      -0.547200
     21 P6          -2.7940    -1.9000     0.6970 p5         1 JB6       1.365500
     22 S8          -2.5020    -3.7290    -0.2540 sh         1 JB6      -0.542200
     23 O9          -3.4690    -2.1600     1.9840 o          1 JB6      -0.709300
     24 O4          -1.3990    -1.1340     0.7380 os         1 JB6      -0.530200
     25 C2          -0.3450    -1.5900     1.5920 c3         1 JB6       0.145400
     26 C1           0.9210    -1.7440     0.7640 c3         1 JB6       0.132100
     27 O1           0.7740    -2.6730    -0.2740 oh         1 JB6      -0.570800
     28 C3           2.0740    -2.0850     1.6950 c3         1 JB6       0.140400
     29 O5           3.2540    -2.2140     0.8980 os         1 JB6      -0.522200
     30 P7           4.6810    -2.2470     1.6020 p5         1 JB6       1.362500
     31 S13          5.1340    -0.3040     2.1950 sh         1 JB6      -0.540200
     32 O12          4.8560    -3.1370     2.7650 o          1 JB6      -0.717300
     33 O14          5.5250    -2.5480     0.2880 os         1 JB6      -0.528200
     34 C5           6.9430    -2.7290     0.3520 c3         1 JB6       0.172400
     35 C6           7.5300    -2.1840    -0.9310 c5         1 JB6       0.133100
     36 O11          7.2880    -0.7790    -1.0180 os         1 JB6      -0.403600
     37 C7           9.0420    -2.3660    -1.0070 c5         1 JB6       0.089100
     38 O15          9.4000    -2.4950    -2.3570 oh         1 JB6      -0.576800
     39 C8           9.5350    -1.0360    -0.4320 c5         1 JB6       0.062100
     40 O17         10.8150    -0.6570    -0.8340 oh         1 JB6      -0.567800
     41 C9           8.5010    -0.0710    -1.0060 c5         1 JB6       0.262800
     42 N18          8.3470     1.1470    -0.2620 na         1 JB6      -0.265000
     43 C19          8.1740     1.2990     1.0900 cc         1 JB6       0.408700
     44 N22          7.9990     2.5330     1.4520 nd         1 JB6      -0.538100
     45 C21          8.0520     3.2460     0.2810 ca         1 JB6      -0.234200
     46 C20          8.2610     2.4030    -0.7970 ca         1 JB6       0.469800
     47 N25          8.3590     2.7590    -2.0750 nb         1 JB6      -0.745000
     48 C26          8.2350     4.0670    -2.2270 ca         1 JB6       0.710900
     49 N24          8.0370     4.9930    -1.2940 nb         1 JB6      -0.827000
     50 C23          7.9390     4.6170    -0.0130 ca         1 JB6       0.780200
     51 N27          7.7320     5.5420     0.9250 nv         1 JB6      -0.952500
     52 H1         -10.1530     4.0320     3.3560 hn         1 JB6       0.451800
     53 H2         -11.8110     4.4750     3.1780 hn         1 JB6       0.451800
     54 H3         -13.3970     2.2240    -0.3540 h5         1 JB6       0.047100
     55 H4          -7.2280     1.0480     0.8580 h5         1 JB6       0.071800
     56 H5          -9.7620    -0.6670    -1.1860 h2         1 JB6       0.128700
     57 H6          -9.4990     1.6900    -2.5530 h1         1 JB6       0.083700
     58 H7          -8.8030     0.1240    -4.3590 ho         1 JB6       0.426000
     59 H8          -7.1470     1.9680    -2.0170 h1         1 JB6       0.059700
     60 H9          -7.0370     2.1810    -4.2100 ho         1 JB6       0.422000
     61 H10         -6.6770    -0.9350    -2.7960 h1         1 JB6       0.083700
     62 H11         -4.7380     0.4250    -2.1730 hc         1 JB6       0.069700
     63 H12         -5.4670     0.8460    -0.6260 hc         1 JB6       0.069700
     64 H13         -5.4600    -1.5500     0.0460 h1         1 JB6       0.061700
     65 H14         -4.8040    -2.0040    -1.5340 h1         1 JB6       0.061700
     66 H15         -1.8890    -3.2510    -1.3450 hs         1 JB6       0.322800
     67 H16         -0.2050    -0.8490     2.3800 h1         1 JB6       0.062700
     68 H17         -0.6030    -2.5390     2.0740 h1         1 JB6       0.062700
     69 H18          1.1410    -0.7860     0.2840 h1         1 JB6       0.107700
     70 H19          0.5710    -3.5400     0.0970 ho         1 JB6       0.412000
     71 H20          2.1920    -1.2900     2.4390 h1         1 JB6       0.058700
     72 H21          1.8870    -3.0220     2.2260 h1         1 JB6       0.058700
     73 H22          4.9930     0.2720     0.9930 hs         1 JB6       0.331800
     74 H23          7.3690    -2.2230     1.2250 h1         1 JB6       0.056200
     75 H24          7.1600    -3.7950     0.4410 h1         1 JB6       0.056200
     76 H25          7.0470    -2.6820    -1.7770 h1         1 JB6       0.114700
     77 H26          9.3860    -3.2230    -0.4120 h1         1 JB6       0.056700
     78 H27         10.3420    -2.3030    -2.4370 ho         1 JB6       0.428000
     79 H28          9.4510    -1.0770     0.6610 h1         1 JB6       0.050700
     80 H29         11.4600    -1.0460    -0.2360 ho         1 JB6       0.419000
     81 H30          8.7930     0.2280    -2.0180 h2         1 JB6       0.125700
     82 H31          8.1880     0.4590     1.7670 h5         1 JB6       0.069800
     83 H32          8.3040     4.4370    -3.2450 h5         1 JB6       0.047100
     84 H33          7.7120     6.5170     0.6780 hn         1 JB6       0.452300
     85 H34          7.7170     5.2980     1.8990 hn         1 JB6       0.452300
@<TRIPOS>BOND
     1     1     2 1   
     2     1    52 1   
     3     1    53 1   
     4     2     3 ar  
     5     2     7 ar  
     6     3     4 ar  
     7     4     5 ar  
     8     4    54 1   
     9     5     6 ar  
    10     6     7 ar  
    11     6    10 1   
    12     7     8 1   
    13     8     9 2   
    14     9    10 1   
    15     9    55 1   
    16    10    11 1   
    17    11    12 1   
    18    11    13 1   
    19    11    56 1   
    20    12    17 1   
    21    13    14 1   
    22    13    15 1   
    23    13    57 1   
    24    14    58 1   
    25    15    16 1   
    26    15    17 1   
    27    15    59 1   
    28    16    60 1   
    29    17    18 1   
    30    17    61 1   
    31    18    19 1   
    32    18    62 1   
    33    18    63 1   
    34    19    20 1   
    35    19    64 1   
    36    19    65 1   
    37    20    21 1   
    38    21    22 1   
    39    21    23 2   
    40    21    24 1   
    41    22    66 1   
    42    24    25 1   
    43    25    26 1   
    44    25    67 1   
    45    25    68 1   
    46    26    27 1   
    47    26    28 1   
    48    26    69 1   
    49    27    70 1   
    50    28    29 1   
    51    28    71 1   
    52    28    72 1   
    53    29    30 1   
    54    30    31 1   
    55    30    32 2   
    56    30    33 1   
    57    31    73 1   
    58    33    34 1   
    59    34    35 1   
    60    34    74 1   
    61    34    75 1   
    62    35    36 1   
    63    35    37 1   
    64    35    76 1   
    65    36    41 1   
    66    37    38 1   
    67    37    39 1   
    68    37    77 1   
    69    38    78 1   
    70    39    40 1   
    71    39    41 1   
    72    39    79 1   
    73    40    80 1   
    74    41    42 1   
    75    41    81 1   
    76    42    43 1   
    77    42    46 1   
    78    43    44 2   
    79    43    82 1   
    80    44    45 1   
    81    45    46 ar  
    82    45    50 ar  
    83    46    47 ar  
    84    47    48 ar  
    85    48    49 ar  
    86    48    83 1   
    87    49    50 ar  
    88    50    51 1   
    89    51    84 1   
    90    51    85 1   
@<TRIPOS>SUBSTRUCTURE
     1 JB6         1 TEMP              0 ****  ****    0 ROOT
