@<TRIPOS>MOLECULE
JB7
   58    58     1     0     0
SMALL
No Charge or Current Charge


@<TRIPOS>ATOM
      1 C1          14.7780    17.7980    39.6850 c          1 JB7       0.719000
      2 C2          15.6510    18.9740    39.1290 c3         1 JB7      -0.041300
      3 C3          14.7830    20.1350    38.5670 c3         1 JB7      -0.039400
      4 C4          13.9650    19.7930    37.2930 c3         1 JB7      -0.200400
      5 C5          13.1260    21.0080    36.8590 c          1 JB7       0.714000
      6 C15         25.6210    16.0240    39.4640 ca         1 JB7      -0.092500
      7 C17         24.4740    14.1270    38.4620 ca         1 JB7      -0.003900
      8 C18         24.8270    14.5870    37.1830 ca         1 JB7      -0.077500
      9 O8          25.6920    20.9870    39.4520 o          1 JB7      -0.580100
     10 C21         27.4270    19.6060    40.3270 c3         1 JB7      -0.177100
     11 N3          25.9610    19.0020    38.3210 n          1 JB7      -0.412800
     12 C13         26.7660    17.7870    38.0350 c3         1 JB7       0.162300
     13 C14         25.9780    16.4920    38.1850 ca         1 JB7      -0.099300
     14 C19         25.5770    15.7670    37.0440 ca         1 JB7      -0.092500
     15 C16         24.8710    14.8430    39.6030 ca         1 JB7      -0.077500
     16 C12         24.8690    19.3090    37.3650 c3         1 JB7       0.099000
     17 C11         23.4900    18.7960    37.8320 c3         1 JB7      -0.099400
     18 C9          20.9870    18.5580    37.2760 c3         1 JB7      -0.087400
     19 C7          19.8300    18.8820    36.2940 c3         1 JB7       0.000700
     20 C8          20.0510    18.2530    34.8750 c          1 JB7       0.713000
     21 O7          19.8900    17.0470    34.7370 o          1 JB7      -0.756000
     22 O6          20.2640    19.0050    33.9330 o          1 JB7      -0.756000
     23 N2          18.5220    18.4590    36.8500 ns         1 JB7      -0.513900
     24 O5          18.1660    20.1990    38.2870 o          1 JB7      -0.695100
     25 N1          16.6540    18.4860    38.1490 ns         1 JB7      -0.463900
     26 O2          14.6290    16.7910    39.0030 o          1 JB7      -0.754500
     27 O1          14.3790    17.8770    40.8400 o          1 JB7      -0.754500
     28 O3          13.6280    21.8170    36.0950 o          1 JB7      -0.777500
     29 O4          12.0060    21.1360    37.3300 o          1 JB7      -0.777500
     30 H1          16.2090    19.3690    39.9880 h1         1 JB7       0.038700
     31 H2          14.0960    20.4680    39.3540 hc         1 JB7       0.025200
     32 H3          15.4340    20.9910    38.3490 hc         1 JB7       0.025200
     33 H4          14.6960    19.5420    36.5160 hc         1 JB7       0.029200
     34 H5          13.3070    18.9600    37.5670 hc         1 JB7       0.029200
     35 H6          25.9180    16.5780    40.3520 ha         1 JB7       0.112500
     36 H7          24.5170    14.0320    36.3000 ha         1 JB7       0.130000
     37 H8          27.5160    20.3570    41.1200 hc         1 JB7       0.046033
     38 H9          27.2760    18.6030    40.7410 hc         1 JB7       0.046033
     39 H10         28.3710    19.5090    39.7800 hc         1 JB7       0.046033
     40 H11         27.6530    17.7270    38.6740 h1         1 JB7       0.034700
     41 H12         27.1400    17.8630    37.0050 h1         1 JB7       0.034700
     42 H13         25.8400    16.1210    36.0500 ha         1 JB7       0.112500
     43 H14         24.5950    14.4870    40.5940 ha         1 JB7       0.130000
     44 H15         25.1060    18.8480    36.3970 h1         1 JB7       0.043200
     45 H16         24.8170    20.3920    37.1950 h1         1 JB7       0.043200
     46 H17         23.2420    19.2620    38.7930 hc         1 JB7       0.051700
     47 H18         23.5400    17.7150    38.0050 hc         1 JB7       0.051700
     48 H19         22.6290    18.6330    35.8540 hc         1 JB7       0.038200
     49 H20         22.2990    20.1710    36.6530 hc         1 JB7       0.038200
     50 H21         20.7560    18.9920    38.2560 hc         1 JB7       0.048200
     51 H22         21.0460    17.4720    37.4180 hc         1 JB7       0.048200
     52 H23         19.7940    19.9710    36.1580 h1         1 JB7       0.046700
     53 H25         18.1280    17.5900    36.5120 hn         1 JB7       0.320500
     54 H26         16.4660    17.6020    37.6940 hn         1 JB7       0.280500
     55 C6          17.8090    19.1370    37.8020 c          1 JB7       0.641100
     56 C20         26.3040    19.9330    39.3350 c          1 JB7       0.596100
     57 C10         22.3650    19.0880    36.8160 c3         1 JB7      -0.059400
     58 Br          23.4480    12.5240    38.6510 br         1 JB7      -0.105100
@<TRIPOS>BOND
     1     1     2 1   
     2     1    26 1   
     3     1    27 1   
     4     2     3 1   
     5     2    25 1   
     6     2    30 1   
     7     3     4 1   
     8     3    31 1   
     9     3    32 1   
    10     4     5 1   
    11     4    33 1   
    12     4    34 1   
    13     5    28 1   
    14     5    29 1   
    15     6    13 ar  
    16     6    15 ar  
    17     6    35 1   
    18     7     8 ar  
    19     7    15 ar  
    20     7    58 1   
    21     8    14 ar  
    22     8    36 1   
    23     9    56 2   
    24    10    37 1   
    25    10    38 1   
    26    10    39 1   
    27    10    56 1   
    28    11    12 1   
    29    11    16 1   
    30    11    56 1   
    31    12    13 1   
    32    12    40 1   
    33    12    41 1   
    34    13    14 ar  
    35    14    42 1   
    36    15    43 1   
    37    16    17 1   
    38    16    44 1   
    39    16    45 1   
    40    17    46 1   
    41    17    47 1   
    42    17    57 1   
    43    18    19 1   
    44    18    50 1   
    45    18    51 1   
    46    18    57 1   
    47    19    20 1   
    48    19    23 1   
    49    19    52 1   
    50    20    21 1   
    51    20    22 1   
    52    23    53 1   
    53    23    55 1   
    54    24    55 2   
    55    25    54 1   
    56    25    55 1   
    57    48    57 1   
    58    49    57 1   
@<TRIPOS>SUBSTRUCTURE
     1 JB7         1 TEMP              0 ****  ****    0 ROOT
