@<TRIPOS>MOLECULE
JB7
   58    58     1     0     0
SMALL
abcg2


@<TRIPOS>ATOM
      1 C1          17.1240    19.8480    39.5890 c          1 JB7       0.719000
      2 C2          16.3140    20.2580    38.3310 c3         1 JB7      -0.041300
      3 C3          14.8680    19.7590    38.4310 c3         1 JB7      -0.039400
      4 C4          14.7070    18.2490    38.5430 c3         1 JB7      -0.200400
      5 C5          13.2580    17.7410    38.7050 c          1 JB7       0.714000
      6 C15         24.5910    15.7160    39.2320 ca         1 JB7      -0.092500
      7 C17         23.7290    14.2380    37.5620 ca         1 JB7      -0.003900
      8 C18         24.5360    14.8270    36.6030 ca         1 JB7      -0.077500
      9 O8          24.8250    20.3120    40.3680 o          1 JB7      -0.580100
     10 C21         26.3200    18.7130    41.3020 c3         1 JB7      -0.177100
     11 N3          25.5140    18.6880    38.9750 n          1 JB7      -0.412800
     12 C13         26.2850    17.4960    38.6740 c3         1 JB7       0.162300
     13 C14         25.4100    16.3280    38.2880 ca         1 JB7      -0.099300
     14 C19         25.3750    15.8690    36.9780 ca         1 JB7      -0.092500
     15 C16         23.7500    14.6730    38.8810 ca         1 JB7      -0.077500
     16 C12         24.7460    19.2550    37.8740 c3         1 JB7       0.099000
     17 C11         23.2720    18.8670    37.8670 c3         1 JB7      -0.099400
     18 C9          21.0740    19.0410    36.6480 c3         1 JB7      -0.087400
     19 C7          20.2170    19.6680    35.5330 c3         1 JB7       0.000700
     20 C8          20.5350    19.0170    34.1660 c          1 JB7       0.713000
     21 O7          19.7360    18.1480    33.7590 o          1 JB7      -0.756000
     22 O6          21.5820    19.3940    33.6070 o          1 JB7      -0.756000
     23 N2          18.8100    19.5120    35.8240 ns         1 JB7      -0.513900
     24 O5          18.6770    21.2280    37.2980 o          1 JB7      -0.695100
     25 N1          16.9080    19.8130    37.0860 ns         1 JB7      -0.463900
     26 O2          17.9740    18.9460    39.4680 o          1 JB7      -0.754500
     27 O1          16.8190    20.4570    40.6360 o          1 JB7      -0.754500
     28 O3          12.3430    18.5870    38.7340 o          1 JB7      -0.777500
     29 O4          13.1290    16.5010    38.7950 o          1 JB7      -0.777500
     30 H1          16.2700    21.3500    38.3070 h1         1 JB7       0.038700
     31 H2          14.4160    20.2350    39.3020 hc         1 JB7       0.025200
     32 H3          14.3110    20.1240    37.5640 hc         1 JB7       0.025200
     33 H4          15.1290    17.7420    37.6670 hc         1 JB7       0.029200
     34 H5          15.2860    17.8690    39.3910 hc         1 JB7       0.029200
     35 H6          24.5970    16.0580    40.2610 ha         1 JB7       0.112500
     36 H7          24.5190    14.4910    35.5750 ha         1 JB7       0.130000
     37 H8          26.1660    19.3080    42.1980 hc         1 JB7       0.046033
     38 H9          26.0430    17.6820    41.5260 hc         1 JB7       0.046033
     39 H10         27.3840    18.7210    41.0650 hc         1 JB7       0.046033
     40 H11         26.8960    17.2270    39.5310 h1         1 JB7       0.034700
     41 H12         26.9780    17.7160    37.8570 h1         1 JB7       0.034700
     42 H13         26.0030    16.3340    36.2270 ha         1 JB7       0.112500
     43 H14         23.1220    14.2100    39.6310 ha         1 JB7       0.130000
     44 H15         25.2170    18.9210    36.9460 h1         1 JB7       0.043200
     45 H16         24.8410    20.3410    37.8940 h1         1 JB7       0.043200
     46 H17         22.7980    19.2120    38.7890 hc         1 JB7       0.051700
     47 H18         23.1780    17.7780    37.8570 hc         1 JB7       0.051700
     48 H19         23.0350    19.1210    35.7440 hc         1 JB7       0.038200
     49 H20         22.6150    20.5390    36.6790 hc         1 JB7       0.038200
     50 H21         20.6330    19.3240    37.6080 hc         1 JB7       0.048200
     51 H22         20.9910    17.9500    36.5900 hc         1 JB7       0.048200
     52 H23         20.4510    20.7340    35.4740 h1         1 JB7       0.046700
     53 H25         18.3870    18.6880    35.4270 hn         1 JB7       0.320500
     54 H26         16.7030    18.8570    36.8400 hn         1 JB7       0.280500
     55 C6          18.1760    20.2300    36.7830 c          1 JB7       0.641100
     56 C20         25.4890    19.3010    40.1830 c          1 JB7       0.596100
     57 C10         22.5410    19.4460    36.6620 c3         1 JB7      -0.059400
     58 BR          22.5790    12.8230    37.0690 br         1 JB7      -0.105100
@<TRIPOS>BOND
     1     1     2 1   
     2     1    26 1   
     3     1    27 1   
     4     2     3 1   
     5     2    25 1   
     6     2    30 1   
     7     3     4 1   
     8     3    31 1   
     9     3    32 1   
    10     4     5 1   
    11     4    33 1   
    12     4    34 1   
    13     5    28 1   
    14     5    29 1   
    15     6    13 ar  
    16     6    15 ar  
    17     6    35 1   
    18     7     8 ar  
    19     7    15 ar  
    20     7    58 1   
    21     8    14 ar  
    22     8    36 1   
    23     9    56 2   
    24    10    37 1   
    25    10    38 1   
    26    10    39 1   
    27    10    56 1   
    28    11    12 1   
    29    11    16 1   
    30    11    56 1   
    31    12    13 1   
    32    12    40 1   
    33    12    41 1   
    34    13    14 ar  
    35    14    42 1   
    36    15    43 1   
    37    16    17 1   
    38    16    44 1   
    39    16    45 1   
    40    17    46 1   
    41    17    47 1   
    42    17    57 1   
    43    18    19 1   
    44    18    50 1   
    45    18    51 1   
    46    18    57 1   
    47    19    20 1   
    48    19    23 1   
    49    19    52 1   
    50    20    21 1   
    51    20    22 1   
    52    23    53 1   
    53    23    55 1   
    54    24    55 2   
    55    25    54 1   
    56    25    55 1   
    57    48    57 1   
    58    49    57 1   
@<TRIPOS>SUBSTRUCTURE
     1 JB7         1 TEMP              0 ****  ****    0 ROOT
