@<TRIPOS>MOLECULE
JB9
   94    97     1     0     0
SMALL
abcg2


@<TRIPOS>ATOM
      1 C4           4.9250     0.0420     0.2480 c6         1 JB9       0.149300
      2 C5           5.2190    -1.4310     0.5750 c6         1 JB9       0.159300
      3 C6           4.1240    -2.3680     0.1090 c3         1 JB9       0.166600
      4 C8          10.6990     2.1770     0.4450 c3         1 JB9      -0.182100
      5 N2           8.5400     1.1070     0.5150 ns         1 JB9      -0.510900
      6 C3           6.1160     0.9030     0.6530 c6         1 JB9       0.163300
      7 C1           7.5440    -1.1340     0.4000 c6         1 JB9       0.381300
      8 C2           7.4110     0.3460     0.0490 c6         1 JB9       0.037700
      9 CAM         10.2720    -3.3490    -0.4950 c2         1 JB9      -0.211200
     10 CAN         11.4480    -3.6550     0.0360 c2         1 JB9      -0.310000
     11 CAO          0.1890     1.0210     0.4560 c6         1 JB9       0.147300
     12 CAP          0.3490     2.3180    -0.3380 c6         1 JB9       0.144300
     13 CAQ          1.6130     2.2380    -1.1850 c6         1 JB9       0.182300
     14 CAS          2.6380     0.7150     0.2540 c6         1 JB9       0.367300
     15 CAT          1.4600     0.7040     1.2320 c6         1 JB9       0.121300
     16 CAZ         -1.6760     0.0260     1.6080 c3         1 JB9       0.158300
     17 CBA         -3.1150     0.4050     1.6630 cc         1 JB9       0.186300
     18 CBB         -3.8340     1.1780     0.7870 cd         1 JB9      -0.191000
     19 CBG         -6.9490     0.8560    -0.2070 ca         1 JB9      -0.127300
     20 CBH         -7.7230    -0.1910     0.2750 ca         1 JB9      -0.076000
     21 CBI         -8.3470    -1.0920    -0.5890 ca         1 JB9      -0.054800
     22 CBJ         -8.1370    -0.9450    -1.9630 ca         1 JB9      -0.081000
     23 CBK         -7.3660     0.0980    -2.4520 ca         1 JB9      -0.111000
     24 CBL         -6.7780     1.0040    -1.5790 ca         1 JB9      -0.092000
     25 CBM         -9.1750    -2.1630    -0.0180 ce         1 JB9      -0.188200
     26 CBN        -10.3170    -2.6590    -0.5030 c2         1 JB9      -0.216200
     27 CBO        -11.0910    -2.2290    -1.7180 c3         1 JB9       0.159000
     28 CBQ        -12.9380    -1.1300    -0.8090 c2         1 JB9       0.797100
     29 NBC         -5.0690     1.2020     1.3110 na         1 JB9       0.127800
     30 NBD         -5.1260     0.4940     2.4240 nd         1 JB9      -0.206800
     31 NBE         -3.9490     0.0170     2.6490 nc         1 JB9      -0.350000
     32 NBP        -12.5100    -2.1570    -1.4500 n2         1 JB9      -0.736900
     33 NBR        -12.1670    -0.1040    -0.3260 nv         1 JB9      -1.046700
     34 NBS        -14.2920    -0.9390    -0.6690 nv         1 JB9      -1.046700
     35 O1           8.6590    -1.6470    -0.2150 os         1 JB9      -0.425000
     36 O3           5.8830     2.2190     0.2410 oh         1 JB9      -0.680000
     37 O4           3.7930     0.4830     0.9750 os         1 JB9      -0.444000
     38 O5           6.4120    -1.8180    -0.0690 os         1 JB9      -0.464000
     39 O6           4.4640    -3.6770     0.4950 oh         1 JB9      -0.709000
     40 OAR          2.7400     1.9550    -0.3810 os         1 JB9      -0.434000
     41 OAU          1.3080    -0.5560     1.8340 oh         1 JB9      -0.725000
     42 OAV          0.4340     3.4400     0.5050 oh         1 JB9      -0.703000
     43 OAY         -0.9290     1.1810     1.2930 os         1 JB9      -0.473000
     44 H1           4.7620     0.1480    -0.8330 h1         1 JB9       0.084700
     45 H2           5.3290    -1.5290     1.6670 h1         1 JB9       0.051700
     46 H3           3.1760    -2.0540     0.5580 h1         1 JB9       0.033200
     47 H4           4.0130    -2.2760    -0.9810 h1         1 JB9       0.033200
     48 H5          11.0210     3.0700    -0.0870 hc         1 JB9       0.060367
     49 H6          10.4680     2.4460     1.4740 hc         1 JB9       0.060367
     50 H7          11.5390     1.4810     0.4580 hc         1 JB9       0.060367
     51 H8           8.6710     1.1810     1.5130 hn         1 JB9       0.303500
     52 H9           6.2030     0.8440     1.7520 h1         1 JB9       0.028700
     53 H10          7.6100    -1.2470     1.5000 h2         1 JB9       0.013700
     54 H11          7.3660     0.4390    -1.0390 h1         1 JB9       0.123700
     55 H12          8.2920    -3.6440     0.2240 h1         1 JB9       0.038700
     56 H13          9.3550    -2.8060     1.3610 h1         1 JB9       0.038700
     57 H14         10.1180    -3.4500    -1.5660 ha         1 JB9       0.186000
     58 H16         11.6330    -3.5670     1.1000 ha         1 JB9       0.161500
     59 H17         12.2680    -4.0130    -0.5720 ha         1 JB9       0.161500
     60 H19          0.0120     0.2070    -0.2660 h1         1 JB9       0.046700
     61 H20         -0.5070     2.3990    -1.0240 h1         1 JB9       0.038700
     62 H21          1.4540     1.4250    -1.9130 h1         1 JB9       0.045700
     63 H22          2.4770    -0.0740    -0.5060 h2         1 JB9       0.020700
     64 H23          1.6290     1.4910     1.9800 h1         1 JB9       0.082700
     65 H24          0.9360     3.8200    -2.4340 h1         1 JB9       0.037200
     66 H25          2.1580     4.3130    -1.2620 h1         1 JB9       0.037200
     67 H26         -1.3750    -0.4050     2.5680 h1         1 JB9       0.057200
     68 H27         -1.5210    -0.7480     0.8480 h1         1 JB9       0.057200
     69 H28         -3.5700     1.6900    -0.1230 h4         1 JB9       0.166000
     70 H29         -5.9810     2.7220     0.2530 h1         1 JB9       0.075700
     71 H30         -6.9180     2.0580     1.5860 h1         1 JB9       0.075700
     72 H31         -7.8570    -0.3070     1.3450 ha         1 JB9       0.125000
     73 H32         -8.5590    -1.6630    -2.6540 ha         1 JB9       0.122000
     74 H33         -7.2140     0.2010    -3.5180 ha         1 JB9       0.119000
     75 H34         -6.1820     1.8210    -1.9680 ha         1 JB9       0.110000
     76 H35        -10.6930    -1.2850    -2.1130 h1         1 JB9       0.054200
     77 H36        -10.9340    -2.9700    -2.5100 h1         1 JB9       0.054200
     78 H38        -11.2310    -0.3300    -0.0320 hn         1 JB9       0.462750
     79 H39        -12.6120     0.5760     0.2690 hn         1 JB9       0.462750
     80 H40        -14.8400    -1.7440    -0.9260 hn         1 JB9       0.462750
     81 H41          6.6140     2.7610     0.5560 ho         1 JB9       0.508000
     82 H42          3.7360    -4.2550     0.2490 ho         1 JB9       0.505000
     83 H43          2.0270    -0.6880     2.4590 ho         1 JB9       0.522000
     84 H44         -0.3730     3.4810     1.0290 ho         1 JB9       0.520000
     85 H45          3.0680     4.0880    -3.3650 ho         1 JB9       0.507000
     86 H46         -8.8240    -2.5590     0.9310 ha         1 JB9       0.180000
     87 H47        -10.7950    -3.4470     0.0720 ha         1 JB9       0.180000
     88 H37        -14.6050    -0.5190     0.1920 hn         1 JB9       0.462750
     89 CAL          9.0930    -2.8990     0.3000 c3         1 JB9       0.189800
     90 C7           9.5410     1.5410    -0.2830 c          1 JB9       0.609100
     91 CAW          1.8760     3.5140    -1.9560 c3         1 JB9       0.174600
     92 OAX          2.8830     3.2640    -2.9060 oh         1 JB9      -0.712000
     93 CBF         -6.2700     1.7980     0.7510 c3         1 JB9       0.129900
     94 O7           9.5230     1.4330    -1.4980 o          1 JB9      -0.579100
@<TRIPOS>BOND
     1     1     2 1   
     2     1     6 1   
     3     1    37 1   
     4     1    44 1   
     5     2     3 1   
     6     2    38 1   
     7     2    45 1   
     8     3    39 1   
     9     3    46 1   
    10     3    47 1   
    11     4    48 1   
    12     4    49 1   
    13     4    50 1   
    14     4    90 1   
    15     5     8 1   
    16     5    51 1   
    17     5    90 1   
    18     6     8 1   
    19     6    36 1   
    20     6    52 1   
    21     7     8 1   
    22     7    35 1   
    23     7    38 1   
    24     7    53 1   
    25     8    54 1   
    26     9    10 2   
    27     9    57 1   
    28     9    89 1   
    29    10    58 1   
    30    10    59 1   
    31    11    12 1   
    32    11    15 1   
    33    11    43 1   
    34    11    60 1   
    35    12    13 1   
    36    12    42 1   
    37    12    61 1   
    38    13    40 1   
    39    13    62 1   
    40    13    91 1   
    41    14    15 1   
    42    14    37 1   
    43    14    40 1   
    44    14    63 1   
    45    15    41 1   
    46    15    64 1   
    47    16    17 1   
    48    16    43 1   
    49    16    67 1   
    50    16    68 1   
    51    17    18 2   
    52    17    31 1   
    53    18    29 1   
    54    18    69 1   
    55    19    20 ar  
    56    19    24 ar  
    57    19    93 1   
    58    20    21 ar  
    59    20    72 1   
    60    21    22 ar  
    61    21    25 1   
    62    22    23 ar  
    63    22    73 1   
    64    23    24 ar  
    65    23    74 1   
    66    24    75 1   
    67    25    26 2   
    68    25    86 1   
    69    26    27 1   
    70    26    87 1   
    71    27    32 1   
    72    27    76 1   
    73    27    77 1   
    74    28    32 2   
    75    28    33 1   
    76    28    34 1   
    77    29    30 1   
    78    29    93 1   
    79    30    31 2   
    80    33    78 1   
    81    33    79 1   
    82    34    80 1   
    83    34    88 1   
    84    35    89 1   
    85    36    81 1   
    86    39    82 1   
    87    41    83 1   
    88    42    84 1   
    89    55    89 1   
    90    56    89 1   
    91    65    91 1   
    92    66    91 1   
    93    70    93 1   
    94    71    93 1   
    95    85    92 1   
    96    90    94 2   
    97    91    92 1   
@<TRIPOS>SUBSTRUCTURE
     1 JB9         1 TEMP              0 ****  ****    0 ROOT
