@<TRIPOS>MOLECULE
JB9
   94    97     1     0     0
SMALL
No Charge or Current Charge


@<TRIPOS>ATOM
      1 C4           4.8640     0.0510     0.3360 c6         1 JB9       0.149300
      2 C5           5.0520    -1.4990     0.4680 c6         1 JB9       0.159300
      3 C6           3.9430    -2.3540    -0.2310 c3         1 JB9       0.166600
      4 C8          10.8540     1.7690     1.4100 c3         1 JB9      -0.182100
      5 N2           8.5920     0.8990     1.0960 ns         1 JB9      -0.510900
      6 C3           6.0840     0.7680     1.0050 c6         1 JB9       0.163300
      7 C1           7.4650    -1.3050     0.5740 c6         1 JB9       0.381300
      8 C2           7.4320     0.2460     0.4280 c6         1 JB9       0.037700
      9 CAM         10.2260    -3.5850    -0.4110 c2         1 JB9      -0.211200
     10 CAN         11.4070    -3.5490     0.2310 c2         1 JB9      -0.310000
     11 CAO         -0.0410     1.0740    -0.1190 c6         1 JB9       0.147300
     12 CAP          0.2900     2.0940    -1.2540 c6         1 JB9       0.144300
     13 CAQ          1.6620     1.7440    -1.9170 c6         1 JB9       0.182300
     14 CAS          2.4840     0.6170     0.0350 c6         1 JB9       0.367300
     15 CAT          1.1860     0.9100     0.8570 c6         1 JB9       0.121300
     16 CAZ         -1.9110     0.6450     1.4790 c3         1 JB9       0.158300
     17 CBA         -3.3020     1.1640     1.7600 cc         1 JB9       0.186300
     18 CBB         -4.1910     1.6970     0.8780 cd         1 JB9      -0.191000
     19 CBG         -7.2420     1.8390     0.0810 ca         1 JB9      -0.127300
     20 CBH         -7.3820     0.4360     0.1190 ca         1 JB9      -0.076000
     21 CBI         -8.0160    -0.2530    -0.9320 ca         1 JB9      -0.054800
     22 CBJ         -8.4940     0.4710    -2.0410 ca         1 JB9      -0.081000
     23 CBK         -8.3630     1.8690    -2.0840 ca         1 JB9      -0.111000
     24 CBL         -7.7430     2.5520    -1.0250 ca         1 JB9      -0.092000
     25 CBM         -8.1310    -1.7370    -0.8660 ce         1 JB9      -0.188200
     26 CBN         -9.2270    -2.4690    -1.1770 c2         1 JB9      -0.216200
     27 CBO        -10.5790    -1.9590    -1.6340 c3         1 JB9       0.159000
     28 CBQ        -12.4420    -2.5480    -0.2210 c2         1 JB9       0.797100
     29 NBC         -5.2860     1.9870     1.6590 na         1 JB9       0.127800
     30 NBD         -5.0490     1.6340     2.9640 nd         1 JB9      -0.206800
     31 NBE         -3.8410     1.1330     3.0170 nc         1 JB9      -0.350000
     32 NBP        -11.5950    -2.8750    -1.0890 n2         1 JB9      -0.736900
     33 NBR        -12.5920    -1.4120     0.4070 nv         1 JB9      -1.046700
     34 NBS        -13.3560    -3.3510     0.2480 nv         1 JB9      -1.046700
     35 O1           8.6640    -1.8460    -0.0030 os         1 JB9      -0.425000
     36 O3           6.0070     2.1990     0.8620 oh         1 JB9      -0.680000
     37 O4           3.6200     0.5260     0.9230 os         1 JB9      -0.444000
     38 O5           6.3310    -1.8760    -0.1020 os         1 JB9      -0.464000
     39 O6           4.2100    -3.7710    -0.2030 oh         1 JB9      -0.709000
     40 OAR          2.7070     1.6680    -0.9160 os         1 JB9      -0.434000
     41 OAU          0.9770    -0.1120     1.8660 oh         1 JB9      -0.725000
     42 OAV          0.2510     3.4280    -0.7060 oh         1 JB9      -0.703000
     43 OAY         -1.2540     1.5340     0.5460 os         1 JB9      -0.473000
     44 H1           4.8770     0.3110    -0.7330 h1         1 JB9       0.084700
     45 H2           5.0540    -1.7680     1.5340 h1         1 JB9       0.051700
     46 H3           2.9900    -2.1570     0.2770 h1         1 JB9       0.033200
     47 H4           3.8450    -2.0090    -1.2700 h1         1 JB9       0.033200
     48 H5          11.7630     2.0700     0.8770 hc         1 JB9       0.060367
     49 H6          10.4530     2.5850     2.0220 hc         1 JB9       0.060367
     50 H7          11.0610     0.9950     2.1580 hc         1 JB9       0.060367
     51 H8           8.5940     0.9580     2.1090 hn         1 JB9       0.303500
     52 H9           6.0650     0.5170     2.0770 h1         1 JB9       0.028700
     53 H10          7.4290    -1.5720     1.6410 h2         1 JB9       0.013700
     54 H11          7.4620     0.4750    -0.6470 h1         1 JB9       0.123700
     55 H12          8.0960    -3.8410    -0.2860 h1         1 JB9       0.038700
     56 H13          8.8860    -3.4910     1.2690 h1         1 JB9       0.038700
     57 H14         10.1730    -3.8730    -1.4630 ha         1 JB9       0.186000
     58 H16         11.4800    -3.2600     1.2810 ha         1 JB9       0.161500
     59 H17         12.3400    -3.8050    -0.2740 ha         1 JB9       0.161500
     60 H19         -0.2500     0.1010    -0.5870 h1         1 JB9       0.046700
     61 H20         -0.4890     1.9990    -2.0240 h1         1 JB9       0.038700
     62 H21          1.5750     0.7610    -2.4040 h1         1 JB9       0.045700
     63 H22          2.3550    -0.3300    -0.5040 h2         1 JB9       0.020700
     64 H23          1.3400     1.8810     1.3500 h1         1 JB9       0.082700
     65 H24          1.2720     2.8400    -3.7500 h1         1 JB9       0.037200
     66 H25          2.1820     3.7610    -2.5460 h1         1 JB9       0.037200
     67 H26         -1.3590     0.5880     2.4250 h1         1 JB9       0.057200
     68 H27         -1.9920    -0.3680     1.0640 h1         1 JB9       0.057200
     69 H28         -4.1310     1.8790    -0.1870 h4         1 JB9       0.166000
     70 H29         -6.3620     3.6220     0.9330 h1         1 JB9       0.075700
     71 H30         -7.2430     2.6140     2.0880 h1         1 JB9       0.075700
     72 H31         -7.0060    -0.1240     0.9730 ha         1 JB9       0.125000
     73 H32         -8.9570    -0.0480    -2.8770 ha         1 JB9       0.122000
     74 H33         -8.7370     2.4220    -2.9420 ha         1 JB9       0.119000
     75 H34         -7.6470     3.6350    -1.0700 ha         1 JB9       0.110000
     76 H35        -10.7240    -0.9240    -1.2950 h1         1 JB9       0.054200
     77 H36        -10.6160    -1.9500    -2.7330 h1         1 JB9       0.054200
     78 H38        -11.7110    -1.0100     0.6900 hn         1 JB9       0.462750
     79 H39        -13.2940    -1.4790     1.1260 hn         1 JB9       0.462750
     80 H40        -13.4330    -4.1440    -0.3750 hn         1 JB9       0.462750
     81 H41          6.8920     2.5510     1.1060 ho         1 JB9       0.508000
     82 H42          3.5040    -4.2100    -0.7330 ho         1 JB9       0.505000
     83 H43          1.8200    -0.1700     2.3760 ho         1 JB9       0.522000
     84 H44         -0.4850     3.3980    -0.0470 ho         1 JB9       0.520000
     85 H45          3.5440     3.1680    -4.2830 ho         1 JB9       0.507000
     86 H46         -7.2330    -2.2420    -0.5030 ha         1 JB9       0.180000
     87 H47         -9.1800    -3.5560    -1.0860 ha         1 JB9       0.180000
     88 H37        -13.1350    -3.6530     1.1870 hn         1 JB9       0.462750
     89 CAL          8.8830    -3.2470     0.1980 c3         1 JB9       0.189800
     90 C7           9.7640     1.2690     0.4720 c          1 JB9       0.609100
     91 CAW          2.0860     2.7730    -3.0160 c3         1 JB9       0.174600
     92 OAX          3.3190     2.4220    -3.6790 oh         1 JB9      -0.712000
     93 CBF         -6.5610     2.5850     1.2290 c3         1 JB9       0.129900
     94 O7           9.9110     1.2170    -0.7390 o          1 JB9      -0.579100
@<TRIPOS>BOND
     1     1     2 1   
     2     1     6 1   
     3     1    37 1   
     4     1    44 1   
     5     2     3 1   
     6     2    38 1   
     7     2    45 1   
     8     3    39 1   
     9     3    46 1   
    10     3    47 1   
    11     4    48 1   
    12     4    49 1   
    13     4    50 1   
    14     4    90 1   
    15     5     8 1   
    16     5    51 1   
    17     5    90 1   
    18     6     8 1   
    19     6    36 1   
    20     6    52 1   
    21     7     8 1   
    22     7    35 1   
    23     7    38 1   
    24     7    53 1   
    25     8    54 1   
    26     9    10 2   
    27     9    57 1   
    28     9    89 1   
    29    10    58 1   
    30    10    59 1   
    31    11    12 1   
    32    11    15 1   
    33    11    43 1   
    34    11    60 1   
    35    12    13 1   
    36    12    42 1   
    37    12    61 1   
    38    13    40 1   
    39    13    62 1   
    40    13    91 1   
    41    14    15 1   
    42    14    37 1   
    43    14    40 1   
    44    14    63 1   
    45    15    41 1   
    46    15    64 1   
    47    16    17 1   
    48    16    43 1   
    49    16    67 1   
    50    16    68 1   
    51    17    18 2   
    52    17    31 1   
    53    18    29 1   
    54    18    69 1   
    55    19    20 ar  
    56    19    24 ar  
    57    19    93 1   
    58    20    21 ar  
    59    20    72 1   
    60    21    22 ar  
    61    21    25 1   
    62    22    23 ar  
    63    22    73 1   
    64    23    24 ar  
    65    23    74 1   
    66    24    75 1   
    67    25    26 2   
    68    25    86 1   
    69    26    27 1   
    70    26    87 1   
    71    27    32 1   
    72    27    76 1   
    73    27    77 1   
    74    28    32 2   
    75    28    33 1   
    76    28    34 1   
    77    29    30 1   
    78    29    93 1   
    79    30    31 2   
    80    33    78 1   
    81    33    79 1   
    82    34    80 1   
    83    34    88 1   
    84    35    89 1   
    85    36    81 1   
    86    39    82 1   
    87    41    83 1   
    88    42    84 1   
    89    55    89 1   
    90    56    89 1   
    91    65    91 1   
    92    66    91 1   
    93    70    93 1   
    94    71    93 1   
    95    85    92 1   
    96    90    94 2   
    97    91    92 1   
@<TRIPOS>SUBSTRUCTURE
     1 JB9         1 TEMP              0 ****  ****    0 ROOT
