@<TRIPOS>MOLECULE
JBA
   50    52     1     0     0
SMALL
No Charge or Current Charge


@<TRIPOS>ATOM
      1 O5           3.5740     2.7240    -1.2380 o          1 JBA      -0.507000
      2 S            4.4170     1.9490    -0.3200 s6         1 JBA       1.056000
      3 O4           5.8520     1.8340    -0.6030 o          1 JBA      -0.507000
      4 C18          4.2530     2.7080     1.3000 c3         1 JBA      -0.319100
      5 C1           3.7290     0.2550    -0.2280 c3         1 JBA      -0.298000
      6 C            3.7550    -0.3340    -1.6860 c3         1 JBA      -0.096100
      7 C17          4.6460    -0.5150     0.7460 c          1 JBA       0.617100
      8 N1           5.5400    -1.4250     0.1900 ns         1 JBA      -0.355400
      9 O3           6.2170    -2.4070     1.0140 oh         1 JBA      -0.415100
     10 O2           4.5450    -0.3930     1.9590 o          1 JBA      -0.596100
     11 C2           2.2460     0.2820     0.3160 c3         1 JBA      -0.069400
     12 C3           1.5430    -1.0930     0.5430 c5         1 JBA       0.163300
     13 O1           1.2040    -1.6800    -0.7340 os         1 JBA      -0.417100
     14 C5          -0.1000    -1.4180    -1.0310 c          1 JBA       0.702100
     15 O           -0.6300    -1.7000    -2.0960 o          1 JBA      -0.508000
     16 N           -0.7390    -0.9670     0.1300 n          1 JBA      -0.256400
     17 C4           0.1760    -0.9600     1.2780 c5         1 JBA       0.065000
     18 C6          -2.1230    -0.5790     0.2470 ca         1 JBA      -0.003000
     19 C16         -2.8510    -0.1060    -0.8670 ca         1 JBA      -0.144500
     20 C15         -4.2340     0.1310    -0.7770 ca         1 JBA      -0.065500
     21 C9          -4.9230    -0.1490     0.4150 ca         1 JBA       0.017000
     22 C8          -4.2220    -0.6840     1.5090 ca         1 JBA      -0.065500
     23 C7          -2.8380    -0.9170     1.4160 ca         1 JBA      -0.144500
     24 C10         -6.3340     0.0870     0.5060 cg         1 JBA      -0.124000
     25 C11         -7.5290     0.2920     0.5740 c1         1 JBA      -0.083100
     26 C12         -8.9510     0.5530     0.6250 cx         1 JBA      -0.056600
     27 C14         -9.4600     1.9360     0.2850 cx         1 JBA      -0.115400
     28 C13         -9.7040     0.7880    -0.6650 cx         1 JBA      -0.115400
     29 H19          3.1900     2.7840     1.5440 h1         1 JBA       0.112700
     30 H21          4.7950     2.1000     2.0300 h1         1 JBA       0.112700
     31 H20          4.6990     3.7060     1.2300 h1         1 JBA       0.112700
     32 H1           4.7350    -0.2060    -2.1650 hc         1 JBA       0.069033
     33 H3           3.5190    -1.4050    -1.7000 hc         1 JBA       0.069033
     34 H2           3.0180     0.1700    -2.3250 hc         1 JBA       0.069033
     35 H17          5.4880    -1.6340    -0.8050 hn         1 JBA       0.357500
     36 H18          7.1660    -2.3050     0.7650 ho         1 JBA       0.452000
     37 H5           2.2340     0.8050     1.2800 hc         1 JBA       0.072700
     38 H4           1.6260     0.8960    -0.3510 hc         1 JBA       0.072700
     39 H            2.2210    -1.7620     1.0900 h1         1 JBA       0.099700
     40 H6          -0.0070    -1.8210     1.9340 h1         1 JBA       0.069200
     41 H7           0.0950    -0.0390     1.8690 h1         1 JBA       0.069200
     42 H16         -2.3470     0.1170    -1.8040 ha         1 JBA       0.128500
     43 H15         -4.7710     0.5250    -1.6370 ha         1 JBA       0.123000
     44 H9          -4.7500    -0.9310     2.4280 ha         1 JBA       0.123000
     45 H8          -2.3280    -1.3620     2.2660 ha         1 JBA       0.128500
     46 H10         -9.4730     0.0130     1.4110 hc         1 JBA       0.094700
     47 H13        -10.3080     2.3140     0.8510 hc         1 JBA       0.076200
     48 H14         -8.7380     2.6930    -0.0120 hc         1 JBA       0.076200
     49 H12         -9.1460     0.7770    -1.5980 hc         1 JBA       0.076200
     50 H11        -10.7160     0.3960    -0.7370 hc         1 JBA       0.076200
@<TRIPOS>BOND
     1     1     2 2   
     2     2     3 2   
     3     2     4 1   
     4     2     5 1   
     5     4    29 1   
     6     4    30 1   
     7     4    31 1   
     8     5     6 1   
     9     5     7 1   
    10     5    11 1   
    11     6    32 1   
    12     6    33 1   
    13     6    34 1   
    14     7     8 1   
    15     7    10 2   
    16     8     9 1   
    17     8    35 1   
    18     9    36 1   
    19    11    12 1   
    20    11    37 1   
    21    11    38 1   
    22    12    13 1   
    23    12    17 1   
    24    12    39 1   
    25    13    14 1   
    26    14    15 2   
    27    14    16 1   
    28    16    17 1   
    29    16    18 1   
    30    17    40 1   
    31    17    41 1   
    32    18    19 ar  
    33    18    23 ar  
    34    19    20 ar  
    35    19    42 1   
    36    20    21 ar  
    37    20    43 1   
    38    21    22 ar  
    39    21    24 1   
    40    22    23 ar  
    41    22    44 1   
    42    23    45 1   
    43    24    25 3   
    44    25    26 1   
    45    26    27 1   
    46    26    28 1   
    47    26    46 1   
    48    27    28 1   
    49    27    47 1   
    50    27    48 1   
    51    28    49 1   
    52    28    50 1   
@<TRIPOS>SUBSTRUCTURE
     1 JBA         1 TEMP              0 ****  ****    0 ROOT
