@<TRIPOS>MOLECULE
JBA
   50    52     1     0     0
SMALL
abcg2


@<TRIPOS>ATOM
      1 O5           3.5270     2.6070    -1.3750 o          1 JBA      -0.507000
      2 S            4.2740     1.9320    -0.3150 s6         1 JBA       1.056000
      3 O4           5.7260     1.8180    -0.4510 o          1 JBA      -0.507000
      4 C18          3.9170     2.7780     1.2100 c3         1 JBA      -0.319100
      5 C1           3.6290     0.1990    -0.2120 c3         1 JBA      -0.298000
      6 C            3.7450    -0.3210    -1.6460 c3         1 JBA      -0.096100
      7 C17          4.5220    -0.4980     0.8210 c          1 JBA       0.617100
      8 N1           5.3680    -1.4080     0.3320 ns         1 JBA      -0.355400
      9 O3           6.1220    -2.1500     1.1810 oh         1 JBA      -0.415100
     10 O2           4.4480    -0.2120     2.0030 o          1 JBA      -0.596100
     11 C2           2.1860     0.2430     0.3040 c3         1 JBA      -0.069400
     12 C3           1.5260    -1.1090     0.5360 c5         1 JBA       0.163300
     13 O1           1.2690    -1.7950    -0.6920 os         1 JBA      -0.417100
     14 C5          -0.0240    -1.7000    -1.0310 c          1 JBA       0.702100
     15 O           -0.4390    -2.1080    -2.0830 o          1 JBA      -0.508000
     16 N           -0.7100    -1.1090    -0.0110 n          1 JBA      -0.256400
     17 C4           0.1350    -0.9580     1.1560 c5         1 JBA       0.065000
     18 C6          -2.0870    -0.8710     0.0230 ca         1 JBA      -0.003000
     19 C16         -2.8370    -0.6690    -1.1390 ca         1 JBA      -0.144500
     20 C15         -4.1910    -0.4050    -1.0530 ca         1 JBA      -0.065500
     21 C9          -4.8400    -0.3220     0.1820 ca         1 JBA       0.017000
     22 C8          -4.0800    -0.5150     1.3370 ca         1 JBA      -0.065500
     23 C7          -2.7270    -0.7870     1.2610 ca         1 JBA      -0.144500
     24 C10         -6.2340    -0.0380     0.2610 cg         1 JBA      -0.124000
     25 C11         -7.4140     0.2100     0.3280 c1         1 JBA      -0.083100
     26 C12         -8.8150     0.5040     0.4120 cx         1 JBA      -0.056600
     27 C14         -9.2680     1.8280     0.9780 cx         1 JBA      -0.115400
     28 C13         -9.4130     1.5640    -0.4800 cx         1 JBA      -0.115400
     29 H19          2.8440     2.8580     1.3560 h1         1 JBA       0.112700
     30 H21          4.3860     2.2730     2.0470 h1         1 JBA       0.112700
     31 H20          4.3400     3.7740     1.0840 h1         1 JBA       0.112700
     32 H1           4.7420    -0.1670    -2.0610 hc         1 JBA       0.069033
     33 H3           3.5190    -1.3840    -1.6970 hc         1 JBA       0.069033
     34 H2           3.0330     0.1850    -2.2930 hc         1 JBA       0.069033
     35 H17          5.3830    -1.7140    -0.6290 hn         1 JBA       0.357500
     36 H18          6.9740    -1.6980     1.2560 ho         1 JBA       0.452000
     37 H5           2.1680     0.7450     1.2720 hc         1 JBA       0.072700
     38 H4           1.5720     0.8420    -0.3740 hc         1 JBA       0.072700
     39 H            2.1560    -1.7550     1.1470 h1         1 JBA       0.099700
     40 H6          -0.0610    -1.7350     1.8990 h1         1 JBA       0.069200
     41 H7          -0.0090     0.0150     1.6250 h1         1 JBA       0.069200
     42 H16         -2.3750    -0.7050    -2.1130 ha         1 JBA       0.128500
     43 H15         -4.7530    -0.2460    -1.9630 ha         1 JBA       0.123000
     44 H9          -4.5530    -0.4520     2.3090 ha         1 JBA       0.123000
     45 H8          -2.1760    -0.9370     2.1790 ha         1 JBA       0.128500
     46 H10         -9.4490    -0.3500     0.6290 hc         1 JBA       0.094700
     47 H13        -10.1540     1.8190     1.5990 hc         1 JBA       0.076200
     48 H14         -8.4990     2.5200     1.2970 hc         1 JBA       0.076200
     49 H12         -8.7450     2.0760    -1.1600 hc         1 JBA       0.076200
     50 H11        -10.4010     1.3680    -0.8750 hc         1 JBA       0.076200
@<TRIPOS>BOND
     1     1     2 2   
     2     2     3 2   
     3     2     4 1   
     4     2     5 1   
     5     4    29 1   
     6     4    30 1   
     7     4    31 1   
     8     5     6 1   
     9     5     7 1   
    10     5    11 1   
    11     6    32 1   
    12     6    33 1   
    13     6    34 1   
    14     7     8 1   
    15     7    10 2   
    16     8     9 1   
    17     8    35 1   
    18     9    36 1   
    19    11    12 1   
    20    11    37 1   
    21    11    38 1   
    22    12    13 1   
    23    12    17 1   
    24    12    39 1   
    25    13    14 1   
    26    14    15 2   
    27    14    16 1   
    28    16    17 1   
    29    16    18 1   
    30    17    40 1   
    31    17    41 1   
    32    18    19 ar  
    33    18    23 ar  
    34    19    20 ar  
    35    19    42 1   
    36    20    21 ar  
    37    20    43 1   
    38    21    22 ar  
    39    21    24 1   
    40    22    23 ar  
    41    22    44 1   
    42    23    45 1   
    43    24    25 3   
    44    25    26 1   
    45    26    27 1   
    46    26    28 1   
    47    26    46 1   
    48    27    28 1   
    49    27    47 1   
    50    27    48 1   
    51    28    49 1   
    52    28    50 1   
@<TRIPOS>SUBSTRUCTURE
     1 JBA         1 TEMP              0 ****  ****    0 ROOT
