@<TRIPOS>MOLECULE
JBB
   25    26     1     0     0
SMALL
bcc


@<TRIPOS>ATOM
      1 C10          2.8650     0.3990    -0.5770 cc         1 JBB       0.026800
      2 C13          5.1520     0.0840    -0.3560 cd         1 JBB      -0.168000
      3 C15         -1.9180     0.2250     0.4950 ca         1 JBB      -0.079000
      4 O01         -3.8390     2.1900     0.9860 o          1 JBB      -0.824800
      5 C03         -3.2710     0.0200     0.2460 ca         1 JBB      -0.138600
      6 C04         -3.6740    -1.2110    -0.2650 ca         1 JBB      -0.090000
      7 C05         -2.7450    -2.2110    -0.5190 ca         1 JBB      -0.169000
      8 C06         -1.3990    -1.9920    -0.2660 ca         1 JBB      -0.134000
      9 C07         -0.9760    -0.7710     0.2530 ca         1 JBB      -0.133300
     10 C08          0.4770    -0.5150     0.5050 c3         1 JBB       0.085000
     11 S09          1.1960     0.1770    -1.0380 ss         1 JBB      -0.238000
     12 S11          3.3740     1.7820     0.3230 ss         1 JBB      -0.060800
     13 C12          5.0030     1.2610     0.3170 cc         1 JBB      -0.127100
     14 C14          3.9250    -0.4120    -0.8670 cd         1 JBB      -0.117000
     15 O16         -5.4780     0.8570     0.2750 o          1 JBB      -0.824800
     16 H1           6.1040    -0.4130    -0.4810 ha         1 JBB       0.140000
     17 H2          -1.5930     1.1780     0.8930 ha         1 JBB       0.149000
     18 H3          -4.7230    -1.3880    -0.4610 ha         1 JBB       0.146000
     19 H4          -3.0710    -3.1640    -0.9160 ha         1 JBB       0.106000
     20 H5          -0.6740    -2.7730    -0.4640 ha         1 JBB       0.104000
     21 H6           0.6210     0.2070     1.3080 h1         1 JBB       0.056700
     22 H7           1.0130    -1.4310     0.7530 h1         1 JBB       0.056700
     23 H8           5.7680     1.8460     0.8040 h4         1 JBB       0.157000
     24 H9           3.8260    -1.3310    -1.4270 ha         1 JBB       0.155000
     25 C02         -4.2870     1.1210     0.5280 c          1 JBB       0.924200
@<TRIPOS>BOND
     1     1    11 1   
     2     1    12 1   
     3     1    14 2   
     4     2    13 2   
     5     2    14 1   
     6     2    16 1   
     7     3     5 ar  
     8     3     9 ar  
     9     3    17 1   
    10     4    25 1   
    11     5     6 ar  
    12     5    25 1   
    13     6     7 ar  
    14     6    18 1   
    15     7     8 ar  
    16     7    19 1   
    17     8     9 ar  
    18     8    20 1   
    19     9    10 1   
    20    10    11 1   
    21    10    21 1   
    22    10    22 1   
    23    12    13 1   
    24    13    23 1   
    25    14    24 1   
    26    15    25 1   
@<TRIPOS>SUBSTRUCTURE
     1 JBB         1 TEMP              0 ****  ****    0 ROOT
