@<TRIPOS>MOLECULE
JBB
   25    26     1     0     0
SMALL
No Charge or Current Charge


@<TRIPOS>ATOM
      1 C10          2.9380     0.4640    -0.4720 cc         1 JBB      -0.245000
      2 C13          5.2190     0.1760    -0.6460 cd         1 JBB      -0.150000
      3 C15         -1.9790     0.3160     0.3820 ca         1 JBB      -0.061000
      4 O01         -4.0380     2.2570     0.5180 o          1 JBB      -0.719500
      5 C03         -3.3450     0.0270     0.1530 ca         1 JBB      -0.138600
      6 C04         -3.7110    -1.3050    -0.1530 ca         1 JBB      -0.072000
      7 C05         -2.7370    -2.3150    -0.2280 ca         1 JBB      -0.151000
      8 C06         -1.3870    -2.0130     0.0020 ca         1 JBB      -0.116000
      9 C07         -1.0010    -0.6960     0.3090 ca         1 JBB      -0.133300
     10 C08          0.4640    -0.3640     0.5590 c3         1 JBB       0.132900
     11 S09          1.2770     0.2220    -0.9940 ss         1 JBB      -0.159000
     12 S11          3.4810     1.0530     1.0920 ss         1 JBB       0.229000
     13 C12          5.1510     0.7390     0.6100 cc         1 JBB      -0.254000
     14 C14          3.9500     0.0000    -1.2650 cd         1 JBB      -0.099000
     15 O16         -5.5640     0.8320     0.0150 o          1 JBB      -0.719500
     16 H1           6.1530    -0.1140    -1.1180 ha         1 JBB       0.122000
     17 H2          -1.6710     1.3330     0.6170 ha         1 JBB       0.131000
     18 H3          -4.7530    -1.5620    -0.3350 ha         1 JBB       0.128000
     19 H4          -3.0320    -3.3340    -0.4650 ha         1 JBB       0.088000
     20 H5          -0.6400    -2.8020    -0.0600 ha         1 JBB       0.086000
     21 H6           0.5430     0.4190     1.3230 h1         1 JBB       0.056700
     22 H7           0.9940    -1.2530     0.9220 h1         1 JBB       0.056700
     23 H8           5.9540     0.9770     1.2950 h4         1 JBB       0.139000
     24 H9           3.8060    -0.4450    -2.2460 ha         1 JBB       0.137000
     25 C02         -4.3960     1.1230     0.2340 c          1 JBB       0.713600
@<TRIPOS>BOND
     1     1    11 1   
     2     1    12 1   
     3     1    14 2   
     4     2    13 2   
     5     2    14 1   
     6     2    16 1   
     7     3     5 ar  
     8     3     9 ar  
     9     3    17 1   
    10     4    25 1   
    11     5     6 ar  
    12     5    25 1   
    13     6     7 ar  
    14     6    18 1   
    15     7     8 ar  
    16     7    19 1   
    17     8     9 ar  
    18     8    20 1   
    19     9    10 1   
    20    10    11 1   
    21    10    21 1   
    22    10    22 1   
    23    12    13 1   
    24    13    23 1   
    25    14    24 1   
    26    15    25 1   
@<TRIPOS>SUBSTRUCTURE
     1 JBB         1 TEMP              0 ****  ****    0 ROOT
