@<TRIPOS>MOLECULE
JBC
   30    31     1     0     0
SMALL
No Charge or Current Charge


@<TRIPOS>ATOM
      1 C10        -16.3550     1.6590     8.9930 ca         1 JBC      -0.009100
      2 C14        -13.9940     1.5040     9.6580 ca         1 JBC      -0.297100
      3 C15        -12.8390     2.0240    10.4810 c          1 JBC       0.726600
      4 O16        -11.7570     1.4640    10.3700 o          1 JBC      -0.695500
      5 C03        -20.5260     5.5900     9.4430 ca         1 JBC      -0.297100
      6 C04        -19.2680     4.9470     9.3250 ca         1 JBC       0.009000
      7 C05        -19.0820     3.8770     8.4280 ca         1 JBC      -0.009100
      8 C06        -20.1560     3.4410     7.6330 ca         1 JBC      -0.045500
      9 C07        -21.4060     4.0690     7.7410 ca         1 JBC      -0.240000
     10 C11        -16.1900     0.5590     8.1340 ca         1 JBC      -0.045500
     11 C12        -14.9360    -0.0640     8.0320 ca         1 JBC      -0.240000
     12 C13        -15.2640     2.1260     9.7510 ca         1 JBC       0.009000
     13 C18        -13.8510     0.4040     8.7860 ca         1 JBC       0.228100
     14 C20        -21.5890     5.1310     8.6370 ca         1 JBC       0.228100
     15 N08        -17.8240     3.2560     8.3170 ne         1 JBC      -0.218900
     16 N09        -17.6190     2.2860     9.1040 nf         1 JBC      -0.218900
     17 O01        -19.7370     7.0860    11.0790 o          1 JBC      -0.695500
     18 O17        -13.0310     2.9760    11.2200 o          1 JBC      -0.695500
     19 O19        -12.6550    -0.2220     8.6630 oh         1 JBC      -0.649600
     20 O21        -22.8090     5.7150     8.7150 oh         1 JBC      -0.649600
     21 O22        -21.8000     7.2610    10.4910 o          1 JBC      -0.695500
     22 H1         -18.4240     5.2730     9.9300 ha         1 JBC       0.142000
     23 H2         -20.0190     2.6180     6.9350 ha         1 JBC       0.099000
     24 H3         -22.2350     3.7300     7.1260 ha         1 JBC       0.094500
     25 H4         -17.0290     0.1920     7.5480 ha         1 JBC       0.099000
     26 H5         -14.8090    -0.9140     7.3670 ha         1 JBC       0.094500
     27 H6         -15.4150     2.9760    10.4130 ha         1 JBC       0.142000
     28 H9         -12.0580     0.2860     9.2860 ho         1 JBC       0.552000
     29 H10        -22.6860     6.4280     9.4080 ho         1 JBC       0.552000
     30 C02        -20.6980     6.7340    10.4140 c          1 JBC       0.726600
@<TRIPOS>BOND
     1     1    10 ar  
     2     1    12 ar  
     3     1    16 1   
     4     2     3 1   
     5     2    12 ar  
     6     2    13 ar  
     7     3     4 1   
     8     3    18 1   
     9     5     6 ar  
    10     5    14 ar  
    11     5    30 1   
    12     6     7 ar  
    13     6    22 1   
    14     7     8 ar  
    15     7    15 1   
    16     8     9 ar  
    17     8    23 1   
    18     9    14 ar  
    19     9    24 1   
    20    10    11 ar  
    21    10    25 1   
    22    11    13 ar  
    23    11    26 1   
    24    12    27 1   
    25    13    19 1   
    26    14    20 1   
    27    15    16 2   
    28    17    30 1   
    29    19    28 1   
    30    20    29 1   
    31    21    30 1   
@<TRIPOS>SUBSTRUCTURE
     1 JBC         1 TEMP              0 ****  ****    0 ROOT
