@<TRIPOS>MOLECULE
JBC
   30    31     1     0     0
SMALL
bcc


@<TRIPOS>ATOM
      1 C10        -16.1660     2.0580     8.9450 ca         1 JBC      -0.009100
      2 C14        -13.9360     1.5230     9.7400 ca         1 JBC      -0.297100
      3 C15        -12.7760     1.7850    10.6650 c          1 JBC       0.937200
      4 O16        -11.7560     1.0430    10.4740 o          1 JBC      -0.800800
      5 C03        -20.5230     5.4350     9.4090 ca         1 JBC      -0.297100
      6 C04        -19.3920     4.6420     9.3430 ca         1 JBC      -0.009000
      7 C05        -19.3230     3.5510     8.4760 ca         1 JBC      -0.009100
      8 C06        -20.4230     3.2720     7.6600 ca         1 JBC      -0.063500
      9 C07        -21.5640     4.0450     7.7100 ca         1 JBC      -0.258000
     10 C11        -16.0730     1.0170     8.0090 ca         1 JBC      -0.063500
     11 C12        -14.9380     0.2440     7.9330 ca         1 JBC      -0.258000
     12 C13        -15.0920     2.2870     9.7970 ca         1 JBC      -0.009000
     13 C18        -13.8490     0.4860     8.7880 ca         1 JBC       0.228100
     14 C20        -21.6350     5.1350     8.5860 ca         1 JBC       0.228100
     15 N08        -18.2270     2.6920     8.3390 ne         1 JBC      -0.218900
     16 N09        -17.2650     2.9110     9.0940 nf         1 JBC      -0.218900
     17 O01        -19.6070     6.8940    11.0400 o          1 JBC      -0.800800
     18 O17        -12.8640     2.6650    11.5210 o          1 JBC      -0.800800
     19 O19        -12.7580    -0.2530     8.6940 oh         1 JBC      -0.610600
     20 O21        -22.7280     5.8750     8.6380 oh         1 JBC      -0.610600
     21 O22        -21.6880     7.2580    10.3350 o          1 JBC      -0.800800
     22 H1         -18.5490     4.8780     9.9780 ha         1 JBC       0.160000
     23 H2         -20.3680     2.4290     6.9830 ha         1 JBC       0.117000
     24 H3         -22.4110     3.8160     7.0750 ha         1 JBC       0.112500
     25 H4         -16.8980     0.8210     7.3370 ha         1 JBC       0.117000
     26 H5         -14.8690    -0.5570     7.2070 ha         1 JBC       0.112500
     27 H6         -15.1650     3.0900    10.5200 ha         1 JBC       0.160000
     28 H9         -12.1360     0.1610     9.4250 ho         1 JBC       0.513000
     29 H10        -22.4940     6.5890     9.3600 ho         1 JBC       0.513000
     30 C02        -20.5860     6.6190    10.3460 c          1 JBC       0.937200
@<TRIPOS>BOND
     1     1    10 ar  
     2     1    12 ar  
     3     1    16 1   
     4     2     3 1   
     5     2    12 ar  
     6     2    13 ar  
     7     3     4 1   
     8     3    18 1   
     9     5     6 ar  
    10     5    14 ar  
    11     5    30 1   
    12     6     7 ar  
    13     6    22 1   
    14     7     8 ar  
    15     7    15 1   
    16     8     9 ar  
    17     8    23 1   
    18     9    14 ar  
    19     9    24 1   
    20    10    11 ar  
    21    10    25 1   
    22    11    13 ar  
    23    11    26 1   
    24    12    27 1   
    25    13    19 1   
    26    14    20 1   
    27    15    16 2   
    28    17    30 1   
    29    19    28 1   
    30    20    29 1   
    31    21    30 1   
@<TRIPOS>SUBSTRUCTURE
     1 JBC         1 TEMP              0 ****  ****    0 ROOT
