@<TRIPOS>MOLECULE
JBD
   39    41     1     0     0
SMALL
abcg2


@<TRIPOS>ATOM
      1 C15        -23.0810    27.5700   -24.5080 ca         1 JBD      -0.101600
      2 C17        -22.0940    29.3840   -23.9860 cc         1 JBD       0.405700
      3 C22        -22.9920    35.6740   -22.2840 c3         1 JBD      -0.354100
      4 C24        -24.6800    33.7010   -24.8140 ca         1 JBD      -0.100000
      5 C02        -26.4670    32.1390   -25.0320 ca         1 JBD       0.126000
      6 C03        -25.8260    31.2600   -24.1730 ca         1 JBD      -0.067000
      7 C04        -24.5910    31.5970   -23.6210 ca         1 JBD      -0.103300
      8 C05        -23.9130    30.6070   -22.7030 c3         1 JBD       0.137900
      9 C07        -23.9970    28.3100   -23.7670 ca         1 JBD       0.135500
     10 C09        -25.5220    26.7450   -23.9400 ca         1 JBD       0.288000
     11 C12        -23.5160    26.3060   -24.9680 ca         1 JBD       0.458900
     12 C14        -23.1630    24.1900   -26.1740 c3         1 JBD       0.222100
     13 C18        -24.0170    32.8310   -23.9520 ca         1 JBD       0.273000
     14 C25        -25.9100    33.3660   -25.3610 ca         1 JBD      -0.085000
     15 N06        -23.3510    29.4730   -23.4350 na         1 JBD      -0.287300
     16 N08        -25.2480    27.9350   -23.4500 nb         1 JBD      -0.216000
     17 N11        -24.7740    25.9220   -24.6580 nb         1 JBD      -0.283000
     18 N13        -22.7420    25.4930   -25.6910 nu         1 JBD      -0.907100
     19 N16        -21.8920    28.2610   -24.6340 nd         1 JBD      -0.544100
     20 N19        -22.7510    33.2420   -23.4310 nu         1 JBD      -0.960100
     21 O21        -23.6050    33.4680   -21.0480 o          1 JBD      -0.544500
     22 O23        -21.2090    33.8580   -21.6110 o          1 JBD      -0.544500
     23 S20        -22.6060    33.9770   -21.9630 s6         1 JBD       1.233100
     24 CL10       -27.1410    26.1490   -23.5890 cl         1 JBD      -0.143000
     25 H171       -21.3770    30.1810   -23.8660 h5         1 JBD       0.064800
     26 H223       -22.9280    36.1980   -21.3310 h1         1 JBD       0.106033
     27 H222       -22.2700    36.0640   -22.9970 h1         1 JBD       0.106033
     28 H221       -24.0040    35.7300   -22.6800 h1         1 JBD       0.106033
     29 H241       -24.2160    34.6460   -25.0640 ha         1 JBD       0.127000
     30 H031       -26.2820    30.3100   -23.9290 ha         1 JBD       0.161000
     31 H052       -23.1080    31.0700   -22.1440 h1         1 JBD       0.083700
     32 H051       -24.6310    30.2080   -21.9890 h1         1 JBD       0.083700
     33 H142       -22.3370    23.7550   -26.7320 h1         1 JBD       0.049367
     34 H143       -23.4230    23.5280   -25.3460 h1         1 JBD       0.049367
     35 H141       -24.0300    24.2780   -26.8310 h1         1 JBD       0.049367
     36 H251       -26.4190    34.0420   -26.0330 ha         1 JBD       0.138000
     37 H131       -21.8080    25.8080   -25.8980 hn         1 JBD       0.518000
     38 H191       -21.9270    32.7090   -23.6740 hn         1 JBD       0.508000
     39 CL01       -28.0140    31.6890   -25.7110 cl         1 JBD      -0.189000
@<TRIPOS>BOND
     1     1     9 ar  
     2     1    11 ar  
     3     1    19 1   
     4     2    15 1   
     5     2    19 2   
     6     2    25 1   
     7     3    23 1   
     8     3    26 1   
     9     3    27 1   
    10     3    28 1   
    11     4    13 ar  
    12     4    14 ar  
    13     4    29 1   
    14     5     6 ar  
    15     5    14 ar  
    16     5    39 1   
    17     6     7 ar  
    18     6    30 1   
    19     7     8 1   
    20     7    13 ar  
    21     8    15 1   
    22     8    31 1   
    23     8    32 1   
    24     9    15 1   
    25     9    16 ar  
    26    10    16 ar  
    27    10    17 ar  
    28    10    24 1   
    29    11    17 ar  
    30    11    18 1   
    31    12    18 1   
    32    12    33 1   
    33    12    34 1   
    34    12    35 1   
    35    13    20 1   
    36    14    36 1   
    37    18    37 1   
    38    20    23 1   
    39    20    38 1   
    40    21    23 2   
    41    22    23 2   
@<TRIPOS>SUBSTRUCTURE
     1 JBD         1 TEMP              0 ****  ****    0 ROOT
