@<TRIPOS>MOLECULE
JBD
   39    41     1     0     0
SMALL
No Charge or Current Charge


@<TRIPOS>ATOM
      1 C15        -23.0900    27.5320   -24.8680 ca         1 JBD      -0.101600
      2 C17        -21.6950    29.0140   -25.5910 cc         1 JBD       0.405700
      3 C22        -24.7230    34.7200   -21.1240 c3         1 JBD      -0.354100
      4 C24        -24.7480    34.0110   -24.3810 ca         1 JBD      -0.100000
      5 C02        -25.3840    32.3850   -26.0630 ca         1 JBD       0.126000
      6 C03        -24.3630    31.5310   -25.6210 ca         1 JBD      -0.067000
      7 C04        -23.5230    31.9030   -24.5420 ca         1 JBD      -0.103300
      8 C05        -22.4100    30.9620   -24.0510 c3         1 JBD       0.137900
      9 C07        -23.3410    28.6500   -24.1130 ca         1 JBD       0.135500
     10 C09        -24.9850    27.5320   -22.9950 ca         1 JBD       0.288000
     11 C12        -23.8620    26.3770   -24.6260 ca         1 JBD       0.458900
     12 C14        -24.3760    23.9310   -25.2340 c3         1 JBD       0.222100
     13 C18        -23.7310    33.1580   -23.9150 ca         1 JBD       0.273000
     14 C25        -25.5780    33.6270   -25.4470 ca         1 JBD      -0.085000
     15 N06        -22.4600    29.5850   -24.5730 na         1 JBD      -0.287300
     16 N08        -24.2920    28.6830   -23.1610 nb         1 JBD      -0.216000
     17 N11        -24.8200    26.3760   -23.6790 nb         1 JBD      -0.283000
     18 N13        -23.6570    25.2130   -25.3580 nu         1 JBD      -0.907100
     19 N16        -22.0620    27.7350   -25.8010 nd         1 JBD      -0.544100
     20 N19        -22.9210    33.5940   -22.8670 nu         1 JBD      -0.960100
     21 O21        -23.8100    32.2340   -20.9900 o          1 JBD      -0.544500
     22 O23        -22.1930    34.1450   -20.5680 o          1 JBD      -0.544500
     23 S20        -23.3530    33.5950   -21.2670 s6         1 JBD       1.233100
     24 Cl10       -26.2340    27.5420   -21.7620 cl         1 JBD      -0.143000
     25 H171       -20.9240    29.5610   -26.1220 h5         1 JBD       0.064800
     26 H223       -24.9730    34.7910   -20.0620 h1         1 JBD       0.106033
     27 H222       -24.3970    35.6850   -21.5230 h1         1 JBD       0.106033
     28 H221       -25.5560    34.3030   -21.6980 h1         1 JBD       0.106033
     29 H241       -24.8870    34.9870   -23.9260 ha         1 JBD       0.127000
     30 H031       -24.2380    30.5800   -26.1310 ha         1 JBD       0.161000
     31 H052       -21.4380    31.3960   -24.3210 h1         1 JBD       0.083700
     32 H051       -22.4470    30.9000   -22.9560 h1         1 JBD       0.083700
     33 H142       -23.9850    23.1980   -25.9530 h1         1 JBD       0.049367
     34 H143       -24.2600    23.5190   -24.2230 h1         1 JBD       0.049367
     35 H141       -25.4480    24.0700   -25.4320 h1         1 JBD       0.049367
     36 H251       -26.3620    34.2940   -25.7980 ha         1 JBD       0.138000
     37 H131       -22.9160    25.2890   -26.0580 hn         1 JBD       0.518000
     38 H191       -22.0060    33.1700   -22.8150 hn         1 JBD       0.508000
     39 Cl01       -26.4160    31.9000   -27.4030 cl         1 JBD      -0.189000
@<TRIPOS>BOND
     1     1     9 ar  
     2     1    11 ar  
     3     1    19 1   
     4     2    15 1   
     5     2    19 2   
     6     2    25 1   
     7     3    23 1   
     8     3    26 1   
     9     3    27 1   
    10     3    28 1   
    11     4    13 ar  
    12     4    14 ar  
    13     4    29 1   
    14     5     6 ar  
    15     5    14 ar  
    16     5    39 1   
    17     6     7 ar  
    18     6    30 1   
    19     7     8 1   
    20     7    13 ar  
    21     8    15 1   
    22     8    31 1   
    23     8    32 1   
    24     9    15 1   
    25     9    16 ar  
    26    10    16 ar  
    27    10    17 ar  
    28    10    24 1   
    29    11    17 ar  
    30    11    18 1   
    31    12    18 1   
    32    12    33 1   
    33    12    34 1   
    34    12    35 1   
    35    13    20 1   
    36    14    36 1   
    37    18    37 1   
    38    20    23 1   
    39    20    38 1   
    40    21    23 2   
    41    22    23 2   
@<TRIPOS>SUBSTRUCTURE
     1 JBD         1 TEMP              0 ****  ****    0 ROOT
