@<TRIPOS>MOLECULE
JBE
   15    15     1     0     0
SMALL
No Charge or Current Charge


@<TRIPOS>ATOM
      1 O01          2.3800     0.4920     0.4710 o          1 JBE      -0.424000
      2 N02          1.7290    -0.4080    -0.0760 no         1 JBE       0.717200
      3 O03          2.2360    -1.4500    -0.5090 o          1 JBE      -0.424000
      4 C04          0.2560    -0.3220    -0.0560 ca         1 JBE      -0.340200
      5 C05         -0.5250    -1.4930    -0.0140 ca         1 JBE       0.039000
      6 C06         -1.9190    -1.3480     0.0030 ca         1 JBE      -0.251000
      7 C07         -2.4740    -0.0610    -0.0270 ca         1 JBE       0.448900
      8 N08         -1.7220     1.0600    -0.0760 nb         1 JBE      -0.776000
      9 C09         -0.4090     0.9040    -0.0930 ca         1 JBE       0.699900
     10 N10          0.1530     2.1030    -0.1660 nv         1 JBE      -1.049900
     11 H1          -0.0740    -2.4850     0.0130 ha         1 JBE       0.152000
     12 H2          -2.5680    -2.2170     0.0390 ha         1 JBE       0.139000
     13 H3          -3.5550     0.0780    -0.0140 h4         1 JBE       0.025100
     14 H4           1.0890     2.1680     0.2200 hn         1 JBE       0.522500
     15 H5          -0.4770     2.8550     0.0760 hn         1 JBE       0.522500
@<TRIPOS>BOND
     1     1     2 1   
     2     2     3 1   
     3     2     4 1   
     4     4     5 ar  
     5     4     9 ar  
     6     5     6 ar  
     7     5    11 1   
     8     6     7 ar  
     9     6    12 1   
    10     7     8 ar  
    11     7    13 1   
    12     8     9 ar  
    13     9    10 1   
    14    10    14 1   
    15    10    15 1   
@<TRIPOS>SUBSTRUCTURE
     1 JBE         1 TEMP              0 ****  ****    0 ROOT
