@<TRIPOS>MOLECULE
JBE
   15    15     1     0     0
SMALL
bcc


@<TRIPOS>ATOM
      1 O01          2.3400     0.5600     0.0130 o          1 JBE      -0.234000
      2 N02          1.6540    -0.4450    -0.0300 no         1 JBE       0.337200
      3 O03          2.1320    -1.5580    -0.0760 o          1 JBE      -0.234000
      4 C04          0.2310    -0.3100    -0.0260 ca         1 JBE      -0.405500
      5 C05         -0.5360    -1.4720    -0.0680 ca         1 JBE       0.021000
      6 C06         -1.9070    -1.3870    -0.0620 ca         1 JBE      -0.334300
      7 C07         -2.4640    -0.1110    -0.0150 ca         1 JBE       0.514200
      8 N08         -1.7650     1.0010     0.0250 nb         1 JBE      -0.776000
      9 C09         -0.4210     0.9540     0.0210 ca         1 JBE       0.765200
     10 N10          0.1860     2.1400     0.0620 nv         1 JBE      -0.939500
     11 H1          -0.0510    -2.4370    -0.1040 ha         1 JBE       0.170000
     12 H2          -2.5310    -2.2670    -0.0940 ha         1 JBE       0.157000
     13 H3          -3.5420     0.0090    -0.0080 h4         1 JBE       0.025100
     14 H4           1.1840     2.2340     0.0620 hn         1 JBE       0.467300
     15 H5          -0.3890     2.9650     0.0920 hn         1 JBE       0.467300
@<TRIPOS>BOND
     1     1     2 1   
     2     2     3 1   
     3     2     4 1   
     4     4     5 ar  
     5     4     9 ar  
     6     5     6 ar  
     7     5    11 1   
     8     6     7 ar  
     9     6    12 1   
    10     7     8 ar  
    11     7    13 1   
    12     8     9 ar  
    13     9    10 1   
    14    10    14 1   
    15    10    15 1   
@<TRIPOS>SUBSTRUCTURE
     1 JBE         1 TEMP              0 ****  ****    0 ROOT
