@<TRIPOS>MOLECULE
JBF
   29    31     1     0     0
SMALL
No Charge or Current Charge


@<TRIPOS>ATOM
      1 C02         -7.7740   -33.7340    20.7770 ca         1 JBF       0.225000
      2 C03         -7.5040   -34.2530    22.0540 ca         1 JBF      -0.175000
      3 C04         -8.0180   -35.5010    22.4370 ca         1 JBF      -0.068000
      4 C05         -8.8060   -36.2300    21.5360 ca         1 JBF      -0.144000
      5 C06         -9.0800   -35.7160    20.2560 ca         1 JBF      -0.046000
      6 C07         -8.5690   -34.4580    19.8540 ca         1 JBF      -0.180500
      7 C08         -8.8720   -33.9450    18.5080 cc         1 JBF       0.519500
      8 C10         -9.0600   -32.8620    16.7150 cd         1 JBF       0.642500
      9 C11         -8.9030   -31.7770    15.7180 ca         1 JBF      -0.199500
     10 C12         -9.5080   -31.8760    14.4410 ca         1 JBF      -0.041000
     11 C13         -9.3670   -30.8470    13.4780 ca         1 JBF      -0.152600
     12 C14        -10.0220   -30.9680    12.1130 c          1 JBF       0.716600
     13 C17         -8.6040   -29.7060    13.8120 ca         1 JBF      -0.058000
     14 C18         -8.0010   -29.5990    15.0740 ca         1 JBF      -0.162000
     15 C19         -8.1470   -30.6230    16.0210 ca         1 JBF      -0.088000
     16 F01         -7.2510   -32.5260    20.4660 f          1 JBF      -0.145000
     17 N09         -8.4900   -32.8090    17.9670 nd         1 JBF      -0.699000
     18 N20         -9.7590   -33.9630    16.4790 nc         1 JBF      -0.373300
     19 O15        -10.6750   -31.9720    11.8640 o          1 JBF      -0.716000
     20 O16         -9.8750   -30.0580    11.3100 o          1 JBF      -0.716000
     21 O21         -9.6420   -34.7010    17.6750 os         1 JBF      -0.109700
     22 H1          -6.8930   -33.6820    22.7480 ha         1 JBF       0.131000
     23 H2          -7.8070   -35.9000    23.4270 ha         1 JBF       0.113000
     24 H3          -9.2070   -37.1980    21.8280 ha         1 JBF       0.118000
     25 H4          -9.6950   -36.3090    19.5820 ha         1 JBF       0.137000
     26 H5         -10.0950   -32.7580    14.1900 ha         1 JBF       0.144000
     27 H6          -8.4760   -28.8980    13.0950 ha         1 JBF       0.129000
     28 H7          -7.4160   -28.7150    15.3200 ha         1 JBF       0.091000
     29 H8          -7.6680   -30.5140    16.9920 ha         1 JBF       0.109000
@<TRIPOS>BOND
     1     1     2 ar  
     2     1     6 ar  
     3     1    16 1   
     4     2     3 ar  
     5     2    22 1   
     6     3     4 ar  
     7     3    23 1   
     8     4     5 ar  
     9     4    24 1   
    10     5     6 ar  
    11     5    25 1   
    12     6     7 1   
    13     7    17 2   
    14     7    21 1   
    15     8     9 1   
    16     8    17 1   
    17     8    18 2   
    18     9    10 ar  
    19     9    15 ar  
    20    10    11 ar  
    21    10    26 1   
    22    11    12 1   
    23    11    13 ar  
    24    12    19 1   
    25    12    20 1   
    26    13    14 ar  
    27    13    27 1   
    28    14    15 ar  
    29    14    28 1   
    30    15    29 1   
    31    18    21 1   
@<TRIPOS>SUBSTRUCTURE
     1 JBF         1 TEMP              0 ****  ****    0 ROOT
