@<TRIPOS>MOLECULE
JBF
   29    31     1     0     0
SMALL
abcg2


@<TRIPOS>ATOM
      1 C02         -7.8380   -33.7120    20.7570 ca         1 JBF       0.225000
      2 C03         -7.5660   -34.2000    22.0190 ca         1 JBF      -0.175000
      3 C04         -8.0370   -35.4540    22.3720 ca         1 JBF      -0.068000
      4 C05         -8.7740   -36.2070    21.4660 ca         1 JBF      -0.144000
      5 C06         -9.0380   -35.7050    20.2060 ca         1 JBF      -0.046000
      6 C07         -8.5740   -34.4410    19.8240 ca         1 JBF      -0.180500
      7 C08         -8.8560   -33.9130    18.4980 cc         1 JBF       0.519500
      8 C10         -9.0460   -32.8610    16.7150 cd         1 JBF       0.642500
      9 C11         -8.8900   -31.8000    15.7220 ca         1 JBF      -0.199500
     10 C12         -9.5100   -31.8850    14.4760 ca         1 JBF      -0.041000
     11 C13         -9.3680   -30.8720    13.5360 ca         1 JBF      -0.152600
     12 C14        -10.0630   -30.9650    12.1780 c          1 JBF       0.716600
     13 C17         -8.5850   -29.7660    13.8610 ca         1 JBF      -0.058000
     14 C18         -7.9590   -29.6750    15.0950 ca         1 JBF      -0.162000
     15 C19         -8.1110   -30.6870    16.0300 ca         1 JBF      -0.088000
     16 F01         -7.3800   -32.5020    20.4400 f          1 JBF      -0.145000
     17 N09         -8.4760   -32.8050    17.9530 nd         1 JBF      -0.699000
     18 N20         -9.7370   -33.9460    16.5130 nc         1 JBF      -0.373300
     19 O15        -10.7170   -32.0020    11.9610 o          1 JBF      -0.716000
     20 O16         -9.9110   -29.9920    11.4150 o          1 JBF      -0.716000
     21 O21         -9.6140   -34.6390    17.6830 os         1 JBF      -0.109700
     22 H1          -6.9920   -33.6000    22.7120 ha         1 JBF       0.131000
     23 H2          -7.8270   -35.8420    23.3600 ha         1 JBF       0.113000
     24 H3          -9.1430   -37.1850    21.7420 ha         1 JBF       0.118000
     25 H4          -9.6120   -36.3020    19.5100 ha         1 JBF       0.137000
     26 H5         -10.1160   -32.7460    14.2270 ha         1 JBF       0.144000
     27 H6          -8.4650   -28.9710    13.1370 ha         1 JBF       0.129000
     28 H7          -7.3510   -28.8120    15.3340 ha         1 JBF       0.091000
     29 H8          -7.6270   -30.6130    16.9950 ha         1 JBF       0.109000
@<TRIPOS>BOND
     1     1     2 ar  
     2     1     6 ar  
     3     1    16 1   
     4     2     3 ar  
     5     2    22 1   
     6     3     4 ar  
     7     3    23 1   
     8     4     5 ar  
     9     4    24 1   
    10     5     6 ar  
    11     5    25 1   
    12     6     7 1   
    13     7    17 2   
    14     7    21 1   
    15     8     9 1   
    16     8    17 1   
    17     8    18 2   
    18     9    10 ar  
    19     9    15 ar  
    20    10    11 ar  
    21    10    26 1   
    22    11    12 1   
    23    11    13 ar  
    24    12    19 1   
    25    12    20 1   
    26    13    14 ar  
    27    13    27 1   
    28    14    15 ar  
    29    14    28 1   
    30    15    29 1   
    31    18    21 1   
@<TRIPOS>SUBSTRUCTURE
     1 JBF         1 TEMP              0 ****  ****    0 ROOT
