@<TRIPOS>MOLECULE
JBG
   59    61     1     0     0
SMALL
No Charge or Current Charge


@<TRIPOS>ATOM
      1 C2           6.0850     1.9120    -1.3540 c6         1 JBG       0.164800
      2 C3           5.3240     1.6310    -0.0180 c6         1 JBG       0.167800
      3 C11          1.2730    -0.7680     0.4180 ca         1 JBG       0.169100
      4 C12          0.7360     0.0330    -0.6080 ca         1 JBG       0.030000
      5 C13         -0.6490     0.0530    -0.8380 ca         1 JBG      -0.014000
      6 C14         -1.5280    -0.7330    -0.0490 ca         1 JBG      -0.251600
      7 C15         -0.9740    -1.5390     0.9760 ca         1 JBG       0.242100
      8 C16          0.4190    -1.5610     1.2090 ca         1 JBG       0.010000
      9 C20         -3.0240    -0.7150    -0.2770 c          1 JBG       0.613700
     10 C23         -4.9360     0.3630    -1.5600 c3         1 JBG      -0.047300
     11 C24         -5.1780     0.4440    -3.0950 c          1 JBG       0.718000
     12 C27         -5.4390     1.6430    -0.8440 c3         1 JBG      -0.041100
     13 C28         -5.1900     1.6320     0.6600 ca         1 JBG      -0.054300
     14 C29         -6.0710     0.9480     1.5200 ca         1 JBG      -0.106500
     15 C30         -5.8370     0.9280     2.9060 ca         1 JBG      -0.114500
     16 N1           7.5320     1.5430    -1.2730 n3         1 JBG      -0.723600
     17 N4           5.4630     0.2090     0.4300 n3         1 JBG      -0.705600
     18 C5           6.9100    -0.1580     0.5100 c6         1 JBG       0.167800
     19 C6           7.6720     0.1230    -0.8260 c6         1 JBG       0.164800
     20 C7           4.7260    -0.1030     1.6870 c3         1 JBG       0.173800
     21 C8           3.1840     0.0830     1.6460 c3         1 JBG       0.168600
     22 O9           2.6320    -0.7800     0.6350 os         1 JBG      -0.335100
     23 C10          8.2650     1.8240    -2.5250 c3         1 JBG       0.156100
     24 Cl17         1.0940    -2.5910     2.4860 cl         1 JBG      -0.186000
     25 Cl18         1.7840     1.0290    -1.6210 cl         1 JBG      -0.197000
     26 O19         -1.7980    -2.3050     1.7500 oh         1 JBG      -0.556100
     27 O21         -3.7750    -1.4080     0.4010 o          1 JBG      -0.673100
     28 N22         -3.5030     0.1030    -1.2760 ns         1 JBG      -0.420900
     29 O25         -6.0950    -0.2120    -3.5690 o          1 JBG      -0.714500
     30 O26         -4.3840     1.0810    -3.7750 o          1 JBG      -0.714500
     31 C31         -4.7200     1.5910     3.4410 ca         1 JBG      -0.127000
     32 C32         -3.8370     2.2750     2.5890 ca         1 JBG      -0.114500
     33 C33         -4.0720     2.2970     1.2030 ca         1 JBG      -0.106500
     34 H1           5.5950     1.3440    -2.1590 h1         1 JBG       0.038450
     35 H2           5.9780     2.9780    -1.6010 h1         1 JBG       0.038450
     36 H3           5.7130     2.3100     0.7560 h1         1 JBG       0.034950
     37 H4           4.2670     1.8890    -0.1700 h1         1 JBG       0.034950
     38 H5          -1.0160     0.6910    -1.6370 ha         1 JBG       0.142000
     39 H6          -5.5220    -0.4890    -1.1930 h1         1 JBG       0.074700
     40 H7          -4.9550     2.5170    -1.2960 hc         1 JBG       0.058200
     41 H8          -6.5120     1.7590    -1.0430 hc         1 JBG       0.058200
     42 H9          -6.9350     0.4270     1.1130 ha         1 JBG       0.109500
     43 H10         -6.5200     0.3960     3.5650 ha         1 JBG       0.097500
     44 H13          7.3990     0.4090     1.3160 h1         1 JBG       0.034950
     45 H14          7.0190    -1.2240     0.7560 h1         1 JBG       0.034950
     46 H15          7.2820    -0.5560    -1.5990 h1         1 JBG       0.038450
     47 H16          8.7330    -0.1280    -0.6850 h1         1 JBG       0.038450
     48 H17          4.9190    -1.1460     1.9710 h1         1 JBG       0.037200
     49 H18          5.1170     0.5200     2.5040 h1         1 JBG       0.037200
     50 H19          2.7710    -0.1670     2.6320 h1         1 JBG       0.037700
     51 H20          2.9380     1.1310     1.4380 h1         1 JBG       0.037700
     52 H21          8.1800     2.8850    -2.7940 h1         1 JBG       0.027367
     53 H22          9.3310     1.5870    -2.4110 h1         1 JBG       0.027367
     54 H23          7.8660     1.2250    -3.3560 h1         1 JBG       0.027367
     55 H24         -2.7170    -2.1200     1.4040 ho         1 JBG       0.543000
     56 H25         -2.8200     0.6050    -1.8290 hn         1 JBG       0.343500
     57 H27         -4.5380     1.5730     4.5130 ha         1 JBG       0.096000
     58 H28         -2.9710     2.7880     3.0010 ha         1 JBG       0.097500
     59 H29         -3.3820     2.8260     0.5500 ha         1 JBG       0.109500
@<TRIPOS>BOND
     1     1     2 1   
     2     1    16 1   
     3     1    34 1   
     4     1    35 1   
     5     2    17 1   
     6     2    36 1   
     7     2    37 1   
     8     3     4 ar  
     9     3     8 ar  
    10     3    22 1   
    11     4     5 ar  
    12     4    25 1   
    13     5     6 ar  
    14     5    38 1   
    15     6     7 ar  
    16     6     9 1   
    17     7     8 ar  
    18     7    26 1   
    19     8    24 1   
    20     9    27 2   
    21     9    28 1   
    22    10    11 1   
    23    10    12 1   
    24    10    28 1   
    25    10    39 1   
    26    11    29 1   
    27    11    30 1   
    28    12    13 1   
    29    12    40 1   
    30    12    41 1   
    31    13    14 ar  
    32    13    33 ar  
    33    14    15 ar  
    34    14    42 1   
    35    15    31 ar  
    36    15    43 1   
    37    16    19 1   
    38    16    23 1   
    39    17    18 1   
    40    17    20 1   
    41    18    19 1   
    42    18    44 1   
    43    18    45 1   
    44    19    46 1   
    45    19    47 1   
    46    20    21 1   
    47    20    48 1   
    48    20    49 1   
    49    21    22 1   
    50    21    50 1   
    51    21    51 1   
    52    23    52 1   
    53    23    53 1   
    54    23    54 1   
    55    26    55 1   
    56    28    56 1   
    57    31    32 ar  
    58    31    57 1   
    59    32    33 ar  
    60    32    58 1   
    61    33    59 1   
@<TRIPOS>SUBSTRUCTURE
     1 JBG         1 TEMP              0 ****  ****    0 ROOT
