@<TRIPOS>MOLECULE
JBG
   59    61     1     0     0
SMALL
bcc


@<TRIPOS>ATOM
      1 C2           5.9670     1.9010    -1.2890 c6         1 JBG       0.164800
      2 C3           5.2860     1.7550     0.0580 c6         1 JBG       0.167800
      3 C11          1.3080    -0.6580     0.4220 ca         1 JBG       0.169100
      4 C12          0.7950     0.0940    -0.6380 ca         1 JBG      -0.061600
      5 C13         -0.5560     0.1070    -0.9040 ca         1 JBG      -0.032000
      6 C14         -1.4500    -0.6230    -0.1230 ca         1 JBG      -0.251600
      7 C15         -0.9570    -1.3870     0.9530 ca         1 JBG       0.242100
      8 C16          0.4200    -1.3820     1.2040 ca         1 JBG      -0.081600
      9 C20         -2.9200    -0.6200    -0.3490 c          1 JBG       0.680700
     10 C23         -4.8200     0.3430    -1.5730 c3         1 JBG      -0.047300
     11 C24         -5.0500     0.5540    -3.0890 c          1 JBG       0.928600
     12 C27         -5.3430     1.5800    -0.8120 c3         1 JBG      -0.041100
     13 C28         -5.0450     1.5200     0.6570 ca         1 JBG      -0.054300
     14 C29         -5.9210     0.8890     1.5360 ca         1 JBG      -0.124500
     15 C30         -5.6120     0.7620     2.8830 ca         1 JBG      -0.132500
     16 N1           7.3280     1.4090    -1.2320 n3         1 JBG      -0.723600
     17 N4           5.3000     0.3700     0.4860 n3         1 JBG      -0.705600
     18 C5           6.6650    -0.1150     0.5520 c6         1 JBG       0.167800
     19 C6           7.3460     0.0280    -0.7960 c6         1 JBG       0.164800
     20 C7           4.5920     0.1530     1.7280 c3         1 JBG       0.173800
     21 C8           3.0920     0.2870     1.6060 c3         1 JBG       0.145400
     22 O9           2.6250    -0.6920     0.6670 os         1 JBG      -0.311900
     23 C10          8.0180     1.5880    -2.4880 c3         1 JBG       0.156100
     24 CL17         1.0240    -2.3280     2.5080 cl         1 JBG      -0.094400
     25 CL18         1.8870     0.9920    -1.6300 cl         1 JBG      -0.105400
     26 O19         -1.7380    -2.1050     1.7390 oh         1 JBG      -0.517100
     27 O21         -3.6460    -1.3220     0.3760 o          1 JBG      -0.673100
     28 N22         -3.4130     0.1410    -1.3170 ns         1 JBG      -0.487900
     29 O25         -6.2360     0.5210    -3.4580 o          1 JBG      -0.819800
     30 O26         -4.0400     0.7770    -3.7840 o          1 JBG      -0.819800
     31 C31         -4.4120     1.2610     3.3730 ca         1 JBG      -0.145000
     32 C32         -3.5340     1.9000     2.5080 ca         1 JBG      -0.132500
     33 C33         -3.8530     2.0340     1.1640 ca         1 JBG      -0.124500
     34 H1           5.3700     1.3680    -2.0510 h1         1 JBG       0.038450
     35 H2           5.9800     2.9560    -1.5720 h1         1 JBG       0.038450
     36 H3           5.7840     2.4110     0.7930 h1         1 JBG       0.034950
     37 H4           4.2580     2.1050    -0.0410 h1         1 JBG       0.034950
     38 H5          -0.9000     0.7030    -1.7380 ha         1 JBG       0.160000
     39 H6          -5.3700    -0.5380    -1.2390 h1         1 JBG       0.074700
     40 H7          -4.8870     2.4740    -1.2460 hc         1 JBG       0.058200
     41 H8          -6.4180     1.6510    -0.9840 hc         1 JBG       0.058200
     42 H9          -6.8550     0.4860     1.1610 ha         1 JBG       0.127500
     43 H10         -6.3090     0.2700     3.5510 ha         1 JBG       0.115500
     44 H13          7.2560     0.4200     1.3150 h1         1 JBG       0.034950
     45 H14          6.6560    -1.1710     0.8350 h1         1 JBG       0.034950
     46 H15          6.8510    -0.6380    -1.5240 h1         1 JBG       0.038450
     47 H16          8.3830    -0.3060    -0.7090 h1         1 JBG       0.038450
     48 H17          4.8190    -0.8560     2.0830 h1         1 JBG       0.037200
     49 H18          4.9150     0.8410     2.5270 h1         1 JBG       0.037200
     50 H19          2.6420     0.1140     2.5870 h1         1 JBG       0.037700
     51 H20          2.7940     1.2870     1.2780 h1         1 JBG       0.037700
     52 H21          8.0290     2.6450    -2.7600 h1         1 JBG       0.027367
     53 H22          9.0530     1.2540    -2.3980 h1         1 JBG       0.027367
     54 H23          7.5570     1.0350    -3.3220 h1         1 JBG       0.027367
     55 H24         -2.6690    -1.9580     1.3890 ho         1 JBG       0.504000
     56 H25         -2.8100     0.6140    -1.9730 hn         1 JBG       0.343500
     57 H27         -4.1670     1.1590     4.4220 ha         1 JBG       0.114000
     58 H28         -2.5990     2.2990     2.8810 ha         1 JBG       0.115500
     59 H29         -3.1640     2.5420     0.4990 ha         1 JBG       0.127500
@<TRIPOS>BOND
     1     1     2 1   
     2     1    16 1   
     3     1    34 1   
     4     1    35 1   
     5     2    17 1   
     6     2    36 1   
     7     2    37 1   
     8     3     4 ar  
     9     3     8 ar  
    10     3    22 1   
    11     4     5 ar  
    12     4    25 1   
    13     5     6 ar  
    14     5    38 1   
    15     6     7 ar  
    16     6     9 1   
    17     7     8 ar  
    18     7    26 1   
    19     8    24 1   
    20     9    27 2   
    21     9    28 1   
    22    10    11 1   
    23    10    12 1   
    24    10    28 1   
    25    10    39 1   
    26    11    29 1   
    27    11    30 1   
    28    12    13 1   
    29    12    40 1   
    30    12    41 1   
    31    13    14 ar  
    32    13    33 ar  
    33    14    15 ar  
    34    14    42 1   
    35    15    31 ar  
    36    15    43 1   
    37    16    19 1   
    38    16    23 1   
    39    17    18 1   
    40    17    20 1   
    41    18    19 1   
    42    18    44 1   
    43    18    45 1   
    44    19    46 1   
    45    19    47 1   
    46    20    21 1   
    47    20    48 1   
    48    20    49 1   
    49    21    22 1   
    50    21    50 1   
    51    21    51 1   
    52    23    52 1   
    53    23    53 1   
    54    23    54 1   
    55    26    55 1   
    56    28    56 1   
    57    31    32 ar  
    58    31    57 1   
    59    32    33 ar  
    60    32    58 1   
    61    33    59 1   
@<TRIPOS>SUBSTRUCTURE
     1 JBG         1 TEMP              0 ****  ****    0 ROOT
