@<TRIPOS>MOLECULE
JBH
   19    20     1     0     0
SMALL
No Charge or Current Charge


@<TRIPOS>ATOM
      1 C10         -1.1910     1.4450    -0.2310 ca         1 JBH      -0.071000
      2 O01          1.6920     1.9640     0.3970 oh         1 JBH      -0.661000
      3 C02          1.3060     1.0020    -0.5360 c6         1 JBH       0.505800
      4 N03          2.2620    -0.0380    -0.3210 nu         1 JBH      -0.955400
      5 C04          1.9210    -1.3730    -0.2470 c2         1 JBH       0.653100
      6 N05          0.6950    -1.7620    -0.1070 ne         1 JBH      -0.643100
      7 C06         -0.3680    -0.8420    -0.0620 ca         1 JBH       0.173400
      8 C07         -1.6790    -1.2910     0.1730 ca         1 JBH      -0.097000
      9 C08         -2.7460    -0.3760     0.2100 ca         1 JBH      -0.092000
     10 C09         -2.5010     0.9920     0.0070 ca         1 JBH      -0.128000
     11 C11         -0.1190     0.5290    -0.2610 ca         1 JBH      -0.145300
     12 H1          -1.0090     2.5060    -0.3920 ha         1 JBH       0.109000
     13 H2           3.2050     0.1380    -0.6560 hn         1 JBH       0.482000
     14 H3           2.7520    -2.0820    -0.2900 h5         1 JBH       0.031800
     15 H4          -1.8680    -2.3510     0.3270 ha         1 JBH       0.128000
     16 H5          -3.7590    -0.7280     0.3930 ha         1 JBH       0.113000
     17 H6          -3.3250     1.7020     0.0310 ha         1 JBH       0.113000
     18 H7           1.9460     1.4080     1.1590 ho         1 JBH       0.438000
     19 H8           1.3630     1.4070    -1.5590 h2         1 JBH       0.046700
@<TRIPOS>BOND
     1     1    10 ar  
     2     1    11 ar  
     3     1    12 1   
     4     2     3 1   
     5     2    18 1   
     6     3     4 1   
     7     3    11 1   
     8     3    19 1   
     9     4     5 1   
    10     4    13 1   
    11     5     6 2   
    12     5    14 1   
    13     6     7 1   
    14     7     8 ar  
    15     7    11 ar  
    16     8     9 ar  
    17     8    15 1   
    18     9    10 ar  
    19     9    16 1   
    20    10    17 1   
@<TRIPOS>SUBSTRUCTURE
     1 JBH         1 TEMP              0 ****  ****    0 ROOT
