@<TRIPOS>MOLECULE
JBH
   19    20     1     0     0
SMALL
abcg2


@<TRIPOS>ATOM
      1 C10         -1.1710     1.3980    -0.3280 ca         1 JBH      -0.071000
      2 O01          1.6400     1.5320     0.9420 oh         1 JBH      -0.661000
      3 C02          1.3030     0.9670    -0.3020 c6         1 JBH       0.505800
      4 N03          2.1260    -0.1670    -0.6330 nu         1 JBH      -0.955400
      5 C04          1.8020    -1.4150    -0.2530 c2         1 JBH       0.653100
      6 N05          0.6360    -1.8040     0.1250 ne         1 JBH      -0.643100
      7 C06         -0.3720    -0.8510     0.0640 ca         1 JBH       0.173400
      8 C07         -1.6980    -1.2630     0.2420 ca         1 JBH      -0.097000
      9 C08         -2.7380    -0.3590     0.1320 ca         1 JBH      -0.092000
     10 C09         -2.4800     0.9780    -0.1630 ca         1 JBH      -0.128000
     11 C11         -0.1180     0.4980    -0.2130 ca         1 JBH      -0.145300
     12 H1          -0.9610     2.4390    -0.5450 ha         1 JBH       0.109000
     13 H2           3.0730     0.0020    -0.9350 hn         1 JBH       0.482000
     14 H3           2.6060    -2.1410    -0.3130 h5         1 JBH       0.031800
     15 H4          -1.8930    -2.3060     0.4570 ha         1 JBH       0.128000
     16 H5          -3.7580    -0.6960     0.2680 ha         1 JBH       0.113000
     17 H6          -3.2940     1.6840    -0.2550 ha         1 JBH       0.113000
     18 H7           2.4500     2.0440     0.8420 ho         1 JBH       0.438000
     19 H8           1.4230     1.7100    -1.0960 h2         1 JBH       0.046700
@<TRIPOS>BOND
     1     1    10 ar  
     2     1    11 ar  
     3     1    12 1   
     4     2     3 1   
     5     2    18 1   
     6     3     4 1   
     7     3    11 1   
     8     3    19 1   
     9     4     5 1   
    10     4    13 1   
    11     5     6 2   
    12     5    14 1   
    13     6     7 1   
    14     7     8 ar  
    15     7    11 ar  
    16     8     9 ar  
    17     8    15 1   
    18     9    10 ar  
    19     9    16 1   
    20    10    17 1   
@<TRIPOS>SUBSTRUCTURE
     1 JBH         1 TEMP              0 ****  ****    0 ROOT
