@<TRIPOS>MOLECULE
JBI
   54    58     1     0     0
SMALL
bcc


@<TRIPOS>ATOM
      1 C1          -0.1460    -0.2230     0.1420 ca         1 JBI       0.482800
      2 F1          -6.1170    -0.3330    -0.3690 f          1 JBI      -0.158900
      3 N1           2.1210     1.1520     0.1690 nb         1 JBI      -0.766000
      4 O1           8.5390     0.7400     0.0030 os         1 JBI      -0.317900
      5 C2          -0.2310     1.1750     0.1100 ca         1 JBI      -0.175200
      6 N2           0.9580    -0.9280     0.1820 nb         1 JBI      -0.783000
      7 C3           0.9780     1.8350     0.1290 ca         1 JBI       0.523200
      8 N3          -1.4320    -0.6790     0.1200 na         1 JBI      -0.289000
      9 C4           2.0700    -0.1780     0.1920 ca         1 JBI       0.918900
     10 N4          -1.5470     1.5720     0.0620 nc         1 JBI      -0.606100
     11 C5          -2.2220     0.4580     0.0650 cd         1 JBI       0.666700
     12 N5           3.2320    -0.8930     0.2230 nu         1 JBI      -0.737300
     13 C6          -1.8120    -2.0820     0.1600 c5         1 JBI       0.049000
     14 N6          -3.5730     0.3370     0.0200 nu         1 JBI      -0.710600
     15 C7           4.5510    -0.4390     0.1520 ca         1 JBI       0.137600
     16 C8          -4.5240     1.3520     0.0030 ca         1 JBI       0.150600
     17 C9          -2.7780    -2.4700     1.3110 c5         1 JBI      -0.098400
     18 C10         -3.9030    -3.2750     0.6470 c5         1 JBI      -0.084400
     19 C11         -3.2880    -3.7880    -0.6560 c5         1 JBI      -0.084400
     20 C12         -2.4490    -2.6100    -1.1350 c5         1 JBI      -0.098400
     21 C13         -5.8550     0.9790    -0.1930 ca         1 JBI       0.062900
     22 C14         -6.8930     1.8800    -0.2130 ca         1 JBI      -0.134000
     23 C15         -6.6130     3.2300    -0.0350 ca         1 JBI      -0.137000
     24 C16         -5.3020     3.6310     0.1600 ca         1 JBI      -0.111000
     25 C17         -4.2620     2.7100     0.1810 ca         1 JBI      -0.136000
     26 C18          4.9940     0.7580     0.7230 ca         1 JBI      -0.121000
     27 C19          6.3260     1.1190     0.6480 ca         1 JBI      -0.167000
     28 C20          7.2630     0.2990     0.0200 ca         1 JBI       0.118100
     29 C21          6.8330    -0.9010    -0.5360 ca         1 JBI      -0.167000
     30 C22          5.4910    -1.2530    -0.4720 ca         1 JBI      -0.121000
     31 C23          9.5100    -0.0500    -0.6510 c3         1 JBI       0.125700
     32 H3           1.0490     2.9170     0.1090 h4         1 JBI       0.037100
     33 HN5          3.1010    -1.8850     0.1010 hn         1 JBI       0.449800
     34 H6          -0.8690    -2.6070     0.3120 h1         1 JBI       0.093700
     35 HN6         -3.9390    -0.5960    -0.0590 hn         1 JBI       0.462800
     36 H9          -2.2400    -3.0850     2.0310 hc         1 JBI       0.058200
     37 H9A         -3.1450    -1.6050     1.8650 hc         1 JBI       0.058200
     38 H10         -4.2750    -4.0750     1.2860 hc         1 JBI       0.050950
     39 H10A        -4.7630    -2.6380     0.4210 hc         1 JBI       0.050950
     40 H11         -2.6440    -4.6490    -0.4530 hc         1 JBI       0.050950
     41 H11A        -4.0340    -4.1010    -1.3860 hc         1 JBI       0.050950
     42 H12         -3.0910    -1.8590    -1.6060 hc         1 JBI       0.058200
     43 H12A        -1.6920    -2.8750    -1.8730 hc         1 JBI       0.058200
     44 H14         -7.9040     1.5280    -0.3700 ha         1 JBI       0.149000
     45 H15         -7.4170     3.9530    -0.0490 ha         1 JBI       0.138000
     46 H16         -5.0720     4.6790     0.2990 ha         1 JBI       0.138000
     47 H17         -3.2480     3.0420     0.3330 ha         1 JBI       0.177000
     48 H18          4.3000     1.4140     1.2260 ha         1 JBI       0.143000
     49 H19          6.6510     2.0520     1.0940 ha         1 JBI       0.140000
     50 H21          7.5180    -1.5740    -1.0350 ha         1 JBI       0.140000
     51 H22          5.1770    -2.1880    -0.9210 ha         1 JBI       0.143000
     52 H23         10.4550     0.4810    -0.5620 h1         1 JBI       0.039367
     53 H23A         9.6170    -1.0360    -0.1890 h1         1 JBI       0.039367
     54 H23B         9.2810    -0.1840    -1.7120 h1         1 JBI       0.039367
@<TRIPOS>BOND
     1     1     5 ar  
     2     1     6 ar  
     3     1     8 1   
     4     2    21 1   
     5     3     7 ar  
     6     3     9 ar  
     7     4    28 1   
     8     4    31 1   
     9     5     7 ar  
    10     5    10 1   
    11     6     9 ar  
    12     7    32 1   
    13     8    11 1   
    14     8    13 1   
    15     9    12 1   
    16    10    11 2   
    17    11    14 1   
    18    12    15 1   
    19    12    33 1   
    20    13    17 1   
    21    13    20 1   
    22    13    34 1   
    23    14    16 1   
    24    14    35 1   
    25    15    26 ar  
    26    15    30 ar  
    27    16    21 ar  
    28    16    25 ar  
    29    17    18 1   
    30    17    36 1   
    31    17    37 1   
    32    18    19 1   
    33    18    38 1   
    34    18    39 1   
    35    19    20 1   
    36    19    40 1   
    37    19    41 1   
    38    20    42 1   
    39    20    43 1   
    40    21    22 ar  
    41    22    23 ar  
    42    22    44 1   
    43    23    24 ar  
    44    23    45 1   
    45    24    25 ar  
    46    24    46 1   
    47    25    47 1   
    48    26    27 ar  
    49    26    48 1   
    50    27    28 ar  
    51    27    49 1   
    52    28    29 ar  
    53    29    30 ar  
    54    29    50 1   
    55    30    51 1   
    56    31    52 1   
    57    31    53 1   
    58    31    54 1   
@<TRIPOS>SUBSTRUCTURE
     1 JBI         1 TEMP              0 ****  ****    0 ROOT
