@<TRIPOS>MOLECULE
JBI
   54    58     1     0     0
SMALL
No Charge or Current Charge


@<TRIPOS>ATOM
      1 C1          -0.1660    -0.1980     0.0150 ca         1 JBI       0.154500
      2 F1          -6.1730    -0.3490    -0.5900 f          1 JBI      -0.194000
      3 N1           2.1390     1.2900    -0.1450 nb         1 JBI      -0.240000
      4 O1           8.7560     0.6380     0.1490 os         1 JBI      -0.341100
      5 C2          -0.2500     1.1710    -0.0740 ca         1 JBI      -0.044600
      6 N2           1.0190    -0.8390     0.0270 nb         1 JBI      -0.257000
      7 C3           0.9420     1.9150    -0.1570 ca         1 JBI       0.194900
      8 N3          -1.4480    -0.6850     0.0720 na         1 JBI      -0.318300
      9 C4           2.1150    -0.0570    -0.0430 ca         1 JBI       0.392900
     10 N4          -1.5560     1.6280    -0.0760 nc         1 JBI      -0.606100
     11 C5          -2.2280     0.4820     0.0290 cd         1 JBI       0.666700
     12 N5           3.3180    -0.7510    -0.0600 nu         1 JBI      -0.930900
     13 C6          -1.8760    -2.0900     0.1410 c5         1 JBI       0.078300
     14 N6          -3.5820     0.4360     0.0230 nu         1 JBI      -0.904200
     15 C7           4.6700    -0.3810    -0.0090 ca         1 JBI       0.276000
     16 C8          -4.6260     1.3780     0.0440 ca         1 JBI       0.289000
     17 C9          -2.8130    -2.4630     1.3430 c5         1 JBI      -0.098400
     18 C10         -3.9740    -3.2920     0.7180 c5         1 JBI      -0.084400
     19 C11         -3.3210    -3.8790    -0.5540 c5         1 JBI      -0.084400
     20 C12         -2.6410    -2.6090    -1.1130 c5         1 JBI      -0.098400
     21 C13         -5.9390     0.9470    -0.2670 ca         1 JBI       0.098000
     22 C14         -7.0190     1.8460    -0.2500 ca         1 JBI      -0.116000
     23 C15         -6.8040     3.1930     0.0850 ca         1 JBI      -0.119000
     24 C16         -5.5100     3.6330     0.4080 ca         1 JBI      -0.093000
     25 C17         -4.4290     2.7320     0.3910 ca         1 JBI      -0.118000
     26 C18          5.1070     0.8100     0.6060 ca         1 JBI      -0.103000
     27 C19          6.4770     1.1330     0.6460 ca         1 JBI      -0.149000
     28 C20          7.4280     0.2700     0.0800 ca         1 JBI       0.118100
     29 C21          7.0000    -0.9320    -0.5240 ca         1 JBI      -0.149000
     30 C22          5.6290    -1.2510    -0.5610 ca         1 JBI      -0.103000
     31 C23          9.8080    -0.1770    -0.3990 c3         1 JBI       0.148900
     32 H3           0.9430     3.0010    -0.2350 h4         1 JBI       0.037100
     33 HN5          3.1740    -1.7490    -0.2110 hn         1 JBI       0.505000
     34 H6          -0.9690    -2.7050     0.2420 h1         1 JBI       0.093700
     35 HN6         -3.9040    -0.5200    -0.0700 hn         1 JBI       0.518000
     36 H9          -2.2600    -3.0570     2.0800 hc         1 JBI       0.058200
     37 H9A         -3.1910    -1.5880     1.8840 hc         1 JBI       0.058200
     38 H10         -4.3410    -4.0710     1.3970 hc         1 JBI       0.050950
     39 H10A        -4.8320    -2.6560     0.4680 hc         1 JBI       0.050950
     40 H11         -2.5950    -4.6670    -0.3180 hc         1 JBI       0.050950
     41 H11A        -4.0580    -4.3010    -1.2470 hc         1 JBI       0.050950
     42 H12         -3.3800    -1.8920    -1.4890 hc         1 JBI       0.058200
     43 H12A        -1.9610    -2.8310    -1.9430 hc         1 JBI       0.058200
     44 H14         -8.0190     1.4970    -0.4960 ha         1 JBI       0.131000
     45 H15         -7.6380     3.8920     0.1000 ha         1 JBI       0.120000
     46 H16         -5.3440     4.6740     0.6780 ha         1 JBI       0.120000
     47 H17         -3.4460     3.0980     0.6650 ha         1 JBI       0.159000
     48 H18          4.3970     1.4830     1.0740 ha         1 JBI       0.125000
     49 H19          6.8020     2.0540     1.1230 ha         1 JBI       0.122000
     50 H21          7.7090    -1.6260    -0.9670 ha         1 JBI       0.122000
     51 H22          5.3110    -2.1780    -1.0300 ha         1 JBI       0.125000
     52 H23         10.7820     0.3010    -0.2370 h1         1 JBI       0.039367
     53 H23A         9.8290    -1.1630     0.0830 h1         1 JBI       0.039367
     54 H23B         9.6720    -0.3150    -1.4790 h1         1 JBI       0.039367
@<TRIPOS>BOND
     1     1     5 ar  
     2     1     6 ar  
     3     1     8 1   
     4     2    21 1   
     5     3     7 ar  
     6     3     9 ar  
     7     4    28 1   
     8     4    31 1   
     9     5     7 ar  
    10     5    10 1   
    11     6     9 ar  
    12     7    32 1   
    13     8    11 1   
    14     8    13 1   
    15     9    12 1   
    16    10    11 2   
    17    11    14 1   
    18    12    15 1   
    19    12    33 1   
    20    13    17 1   
    21    13    20 1   
    22    13    34 1   
    23    14    16 1   
    24    14    35 1   
    25    15    26 ar  
    26    15    30 ar  
    27    16    21 ar  
    28    16    25 ar  
    29    17    18 1   
    30    17    36 1   
    31    17    37 1   
    32    18    19 1   
    33    18    38 1   
    34    18    39 1   
    35    19    20 1   
    36    19    40 1   
    37    19    41 1   
    38    20    42 1   
    39    20    43 1   
    40    21    22 ar  
    41    22    23 ar  
    42    22    44 1   
    43    23    24 ar  
    44    23    45 1   
    45    24    25 ar  
    46    24    46 1   
    47    25    47 1   
    48    26    27 ar  
    49    26    48 1   
    50    27    28 ar  
    51    27    49 1   
    52    28    29 ar  
    53    29    30 ar  
    54    29    50 1   
    55    30    51 1   
    56    31    52 1   
    57    31    53 1   
    58    31    54 1   
@<TRIPOS>SUBSTRUCTURE
     1 JBI         1 TEMP              0 ****  ****    0 ROOT
