@<TRIPOS>MOLECULE
JBJ
   65    70     1     0     0
SMALL
abcg2


@<TRIPOS>ATOM
      1 C02          3.9750     0.7270    -0.6190 c          1 JBJ       0.587100
      2 C04          5.9760     2.0050    -0.1540 cc         1 JBJ       0.530300
      3 C06          7.6830     3.3130     0.2270 cd         1 JBJ       0.301900
      4 C07          6.7560     4.2750     0.0060 cc         1 JBJ      -0.314000
      5 C09          3.4690    -0.7000    -0.8330 c3         1 JBJ       0.123000
      6 C11          1.1180    -0.3580    -0.1870 c          1 JBJ       0.591600
      7 C12         -0.1740    -0.4200    -0.8990 ca         1 JBJ      -0.153600
      8 C13         -1.4480    -0.2060    -0.4050 ca         1 JBJ      -0.034000
      9 C14         -2.5330    -0.3260    -1.2730 cp         1 JBJ      -0.026000
     10 C15         -3.9100    -0.1160    -0.7920 cp         1 JBJ      -0.081000
     11 C16         -4.9860    -0.8420    -1.3090 ca         1 JBJ      -0.063000
     12 C17         -6.2750    -0.6590    -0.8510 ca         1 JBJ      -0.169000
     13 C18         -6.5690     0.2740     0.1590 ca         1 JBJ       0.310000
     14 C20         -8.0840     1.3230     1.7520 c6         1 JBJ       0.162300
     15 C21         -9.4440     1.0710     2.3920 c6         1 JBJ       0.140800
     16 C23        -10.2920     0.1940     0.3550 c6         1 JBJ       0.140800
     17 C24         -8.9540     0.4350    -0.3290 c6         1 JBJ       0.162300
     18 C25         -5.4900     1.0110     0.6690 ca         1 JBJ      -0.169000
     19 C26         -4.2000     0.8110     0.2060 ca         1 JBJ      -0.063000
     20 C27         -2.2850    -0.6560    -2.6150 ca         1 JBJ      -0.084000
     21 C28         -1.0030    -0.8730    -3.1000 ca         1 JBJ      -0.099000
     22 C29          0.0600    -0.7510    -2.2220 ca         1 JBJ      -0.084300
     23 C30          1.5290    -0.9250    -2.4350 c5         1 JBJ       0.153300
     24 C32          3.8580    -1.6850     0.2520 ca         1 JBJ      -0.125300
     25 C33          4.0560    -1.3020     1.5730 ca         1 JBJ      -0.073000
     26 C34          4.3910    -2.2490     2.5180 ca         1 JBJ       0.135000
     27 C36          4.5290    -3.5830     2.1950 ca         1 JBJ      -0.094000
     28 C37          4.3190    -3.9730     0.8820 ca         1 JBJ      -0.186000
     29 C38          3.9800    -3.0360    -0.0890 ca         1 JBJ       0.141100
     30 F35          4.5820    -1.8580     3.7920 f          1 JBJ      -0.172000
     31 N03          5.2930     0.8190    -0.3030 ns         1 JBJ      -0.471400
     32 N05          7.2360     2.0250     0.1360 nd         1 JBJ      -0.706000
     33 N10          2.0610    -0.7000    -1.1050 n          1 JBJ      -0.406800
     34 N19         -7.8630     0.4170     0.6400 nh         1 JBJ      -0.789400
     35 N22        -10.5540     1.0990     1.4580 n7         1 JBJ      -0.838400
     36 O01          3.2850     1.7080    -0.7910 o          1 JBJ      -0.550100
     37 O31          1.3210    -0.0630     0.9760 o          1 JBJ      -0.531000
     38 O39          3.7510    -3.3800    -1.3710 oh         1 JBJ      -0.540100
     39 S08          5.2300     3.5540    -0.3400 ss         1 JBJ       0.058600
     40 H1           8.7210     3.4980     0.4650 h4         1 JBJ       0.039100
     41 H2           6.8810     5.3450     0.0240 h4         1 JBJ       0.159000
     42 H3           3.9590    -1.0200    -1.7580 h1         1 JBJ       0.086700
     43 H4          -1.5950     0.0240     0.6440 ha         1 JBJ       0.137000
     44 H5          -4.8160    -1.5940    -2.0700 ha         1 JBJ       0.113000
     45 H6          -7.0560    -1.2800    -1.2680 ha         1 JBJ       0.114000
     46 H7          -8.0150     2.3760     1.4350 h1         1 JBJ       0.041950
     47 H8          -7.3160     1.1620     2.5100 h1         1 JBJ       0.041950
     48 H9          -9.4310     0.0900     2.8790 h1         1 JBJ       0.061950
     49 H10         -9.6080     1.8130     3.1750 h1         1 JBJ       0.061950
     50 H11        -11.0900     0.2810    -0.3850 h1         1 JBJ       0.061950
     51 H12        -10.3170    -0.8310     0.7370 h1         1 JBJ       0.061950
     52 H13         -8.8050    -0.3360    -1.0810 h1         1 JBJ       0.041950
     53 H14         -8.9790     1.4010    -0.8580 h1         1 JBJ       0.041950
     54 H15         -5.6430     1.7690     1.4240 ha         1 JBJ       0.114000
     55 H16         -3.4080     1.4240     0.6200 ha         1 JBJ       0.113000
     56 H17         -3.1170    -0.7270    -3.3040 ha         1 JBJ       0.116000
     57 H18         -0.8500    -1.1200    -4.1430 ha         1 JBJ       0.119000
     58 H19          1.7810    -1.9240    -2.7980 h1         1 JBJ       0.064700
     59 H20          1.9290    -0.2000    -3.1500 h1         1 JBJ       0.064700
     60 H21          3.9430    -0.2710     1.8780 ha         1 JBJ       0.155000
     61 H22          4.7910    -4.3130     2.9490 ha         1 JBJ       0.135000
     62 H23          4.4200    -5.0190     0.6160 ha         1 JBJ       0.120000
     63 H24          5.8450    -0.0190    -0.1770 hn         1 JBJ       0.346500
     64 H25        -10.6580     2.0410     1.0960 hn         1 JBJ       0.402000
     65 H27          3.8700    -4.3280    -1.4970 ho         1 JBJ       0.472000
@<TRIPOS>BOND
     1     1     5 1   
     2     1    31 1   
     3     1    36 2   
     4     2    31 1   
     5     2    32 2   
     6     2    39 1   
     7     3     4 2   
     8     3    32 1   
     9     3    40 1   
    10     4    39 1   
    11     4    41 1   
    12     5    24 1   
    13     5    33 1   
    14     5    42 1   
    15     6     7 1   
    16     6    33 1   
    17     6    37 2   
    18     7     8 ar  
    19     7    22 ar  
    20     8     9 ar  
    21     8    43 1   
    22     9    10 1   
    23     9    20 ar  
    24    10    11 ar  
    25    10    19 ar  
    26    11    12 ar  
    27    11    44 1   
    28    12    13 ar  
    29    12    45 1   
    30    13    18 ar  
    31    13    34 1   
    32    14    15 1   
    33    14    34 1   
    34    14    46 1   
    35    14    47 1   
    36    15    35 1   
    37    15    48 1   
    38    15    49 1   
    39    16    17 1   
    40    16    35 1   
    41    16    50 1   
    42    16    51 1   
    43    17    34 1   
    44    17    52 1   
    45    17    53 1   
    46    18    19 ar  
    47    18    54 1   
    48    19    55 1   
    49    20    21 ar  
    50    20    56 1   
    51    21    22 ar  
    52    21    57 1   
    53    22    23 1   
    54    23    33 1   
    55    23    58 1   
    56    23    59 1   
    57    24    25 ar  
    58    24    29 ar  
    59    25    26 ar  
    60    25    60 1   
    61    26    27 ar  
    62    26    30 1   
    63    27    28 ar  
    64    27    61 1   
    65    28    29 ar  
    66    28    62 1   
    67    29    38 1   
    68    31    63 1   
    69    35    64 1   
    70    38    65 1   
@<TRIPOS>SUBSTRUCTURE
     1 JBJ         1 TEMP              0 ****  ****    0 ROOT
