@<TRIPOS>MOLECULE
JBJ
   65    70     1     0     0
SMALL
No Charge or Current Charge


@<TRIPOS>ATOM
      1 C02          4.0760     0.9120    -0.6770 c          1 JBJ       0.587100
      2 C04          6.2250     2.0190    -0.1300 cc         1 JBJ       0.530300
      3 C06          8.1730     2.9570     0.3680 cd         1 JBJ       0.301900
      4 C07          7.3960     4.0880     0.3150 cc         1 JBJ      -0.314000
      5 C09          3.5010    -0.5160    -0.9270 c3         1 JBJ       0.123000
      6 C11          1.0660    -0.1600    -0.2970 c          1 JBJ       0.591600
      7 C12         -0.2370    -0.3800    -0.9480 ca         1 JBJ      -0.153600
      8 C13         -1.5250    -0.1280    -0.4530 ca         1 JBJ      -0.034000
      9 C14         -2.6510    -0.4280    -1.2670 cp         1 JBJ      -0.026000
     10 C15         -4.0440    -0.1760    -0.7780 cp         1 JBJ      -0.081000
     11 C16         -5.1110    -1.0380    -1.1290 ca         1 JBJ      -0.063000
     12 C17         -6.4180    -0.8000    -0.6690 ca         1 JBJ      -0.169000
     13 C18         -6.7020     0.3050     0.1530 ca         1 JBJ       0.310000
     14 C20         -8.2950     1.2670     1.8840 c6         1 JBJ       0.162300
     15 C21         -9.7020     0.9390     2.4850 c6         1 JBJ       0.140800
     16 C23        -10.5430     0.2890     0.2750 c6         1 JBJ       0.140800
     17 C24         -9.1540     0.6020    -0.3760 c6         1 JBJ       0.162300
     18 C25         -5.6480     1.1680     0.5110 ca         1 JBJ      -0.169000
     19 C26         -4.3400     0.9320     0.0530 ca         1 JBJ      -0.063000
     20 C27         -2.4140    -0.9770    -2.5620 ca         1 JBJ      -0.084000
     21 C28         -1.1070    -1.2200    -3.0340 ca         1 JBJ      -0.099000
     22 C29         -0.0210    -0.9120    -2.2030 ca         1 JBJ      -0.084300
     23 C30          1.4620    -1.0900    -2.4980 c5         1 JBJ       0.153300
     24 C32          3.9230    -1.5390     0.1450 ca         1 JBJ      -0.125300
     25 C33          3.9250    -1.1850     1.5160 ca         1 JBJ      -0.073000
     26 C34          4.3050    -2.1190     2.4920 ca         1 JBJ       0.135000
     27 C36          4.6870    -3.4160     2.1230 ca         1 JBJ      -0.094000
     28 C37          4.6880    -3.7810     0.7660 ca         1 JBJ      -0.186000
     29 C38          4.3070    -2.8520    -0.2180 ca         1 JBJ       0.141100
     30 F35          4.3030    -1.7650     3.7960 f          1 JBJ      -0.172000
     31 N03          5.4240     0.9420    -0.3980 ns         1 JBJ      -0.471400
     32 N05          7.4980     1.7710     0.1120 nd         1 JBJ      -0.706000
     33 N10          2.0430    -0.5740    -1.2200 n          1 JBJ      -0.406800
     34 N19         -8.0250     0.5270     0.6080 nh         1 JBJ      -0.789400
     35 N22        -10.8060     1.1060     1.4950 n7         1 JBJ      -0.838400
     36 O01          3.3980     1.9290    -0.7430 o          1 JBJ      -0.550100
     37 O31          1.2520     0.2870     0.8260 o          1 JBJ      -0.531000
     38 O39          4.3170    -3.2370    -1.5270 oh         1 JBJ      -0.540100
     39 S08          5.7430     3.7030    -0.0660 ss         1 JBJ       0.058600
     40 H1           9.2340     2.9320     0.5860 h4         1 JBJ       0.039100
     41 H2           7.6890     5.1170     0.4760 h4         1 JBJ       0.159000
     42 H3           4.0040    -0.8070    -1.8580 h1         1 JBJ       0.086700
     43 H4          -1.6510     0.2790     0.5480 ha         1 JBJ       0.137000
     44 H5          -4.9250    -1.9110    -1.7500 ha         1 JBJ       0.113000
     45 H6          -7.2110    -1.4890    -0.9420 ha         1 JBJ       0.114000
     46 H7          -8.2310     2.3500     1.7040 h1         1 JBJ       0.041950
     47 H8          -7.5340     1.0150     2.6370 h1         1 JBJ       0.041950
     48 H9          -9.6950    -0.0990     2.8480 h1         1 JBJ       0.061950
     49 H10         -9.8820     1.5860     3.3570 h1         1 JBJ       0.061950
     50 H11        -11.3370     0.4600    -0.4670 h1         1 JBJ       0.061950
     51 H12        -10.5730    -0.7790     0.5400 h1         1 JBJ       0.061950
     52 H13         -8.9990    -0.1020    -1.2060 h1         1 JBJ       0.041950
     53 H14         -9.1900     1.6100    -0.8150 h1         1 JBJ       0.041950
     54 H15         -5.8370     2.0360     1.1350 ha         1 JBJ       0.114000
     55 H16         -3.5530     1.6280     0.3340 ha         1 JBJ       0.113000
     56 H17         -3.2530    -1.2050    -3.2140 ha         1 JBJ       0.116000
     57 H18         -0.9460    -1.6370    -4.0250 ha         1 JBJ       0.119000
     58 H19          1.7190    -2.1440    -2.6670 h1         1 JBJ       0.064700
     59 H20          1.7790    -0.4930    -3.3630 h1         1 JBJ       0.064700
     60 H21          3.6310    -0.1880     1.8360 ha         1 JBJ       0.155000
     61 H22          4.9800    -4.1330     2.8860 ha         1 JBJ       0.135000
     62 H23          4.9840    -4.7900     0.4860 ha         1 JBJ       0.120000
     63 H24          5.8820     0.0430    -0.3770 hn         1 JBJ       0.346500
     64 H25        -10.8300     2.0940     1.2130 hn         1 JBJ       0.402000
     65 H27          4.6000    -4.1760    -1.5730 ho         1 JBJ       0.472000
@<TRIPOS>BOND
     1     1     5 1   
     2     1    31 1   
     3     1    36 2   
     4     2    31 1   
     5     2    32 2   
     6     2    39 1   
     7     3     4 2   
     8     3    32 1   
     9     3    40 1   
    10     4    39 1   
    11     4    41 1   
    12     5    24 1   
    13     5    33 1   
    14     5    42 1   
    15     6     7 1   
    16     6    33 1   
    17     6    37 2   
    18     7     8 ar  
    19     7    22 ar  
    20     8     9 ar  
    21     8    43 1   
    22     9    10 1   
    23     9    20 ar  
    24    10    11 ar  
    25    10    19 ar  
    26    11    12 ar  
    27    11    44 1   
    28    12    13 ar  
    29    12    45 1   
    30    13    18 ar  
    31    13    34 1   
    32    14    15 1   
    33    14    34 1   
    34    14    46 1   
    35    14    47 1   
    36    15    35 1   
    37    15    48 1   
    38    15    49 1   
    39    16    17 1   
    40    16    35 1   
    41    16    50 1   
    42    16    51 1   
    43    17    34 1   
    44    17    52 1   
    45    17    53 1   
    46    18    19 ar  
    47    18    54 1   
    48    19    55 1   
    49    20    21 ar  
    50    20    56 1   
    51    21    22 ar  
    52    21    57 1   
    53    22    23 1   
    54    23    33 1   
    55    23    58 1   
    56    23    59 1   
    57    24    25 ar  
    58    24    29 ar  
    59    25    26 ar  
    60    25    60 1   
    61    26    27 ar  
    62    26    30 1   
    63    27    28 ar  
    64    27    61 1   
    65    28    29 ar  
    66    28    62 1   
    67    29    38 1   
    68    31    63 1   
    69    35    64 1   
    70    38    65 1   
@<TRIPOS>SUBSTRUCTURE
     1 JBJ         1 TEMP              0 ****  ****    0 ROOT
