@<TRIPOS>MOLECULE
JBK
   17    17     1     0     0
SMALL
No Charge or Current Charge


@<TRIPOS>ATOM
      1 C10          0.3770     0.6980    -0.0750 ca         1 JBK       0.412000
      2 O01         -2.8350    -0.7880    -0.4860 o          1 JBK      -0.426000
      3 N02         -2.0520     0.0030     0.0560 no         1 JBK       0.709200
      4 O03         -2.4210     0.9440     0.7730 o          1 JBK      -0.426000
      5 C04         -0.6020    -0.3150    -0.0040 ca         1 JBK      -0.278200
      6 C05         -0.2020    -1.6710    -0.0100 ca         1 JBK      -0.028000
      7 C06          1.1590    -2.0110    -0.0710 ca         1 JBK      -0.152000
      8 C07          2.1380    -1.0080    -0.1300 ca         1 JBK      -0.112000
      9 C08          1.7570     0.3460    -0.1350 ca         1 JBK       0.030100
     10 O09          2.7380     1.3140    -0.1940 oh         1 JBK      -0.551100
     11 N11          0.0360     2.0270    -0.1060 nv         1 JBK      -1.078000
     12 H1          -0.9430    -2.4690     0.0400 ha         1 JBK       0.150000
     13 H2           1.4550    -3.0580    -0.0690 ha         1 JBK       0.128000
     14 H3           3.1880    -1.2870    -0.1750 ha         1 JBK       0.119000
     15 H4           3.6180     0.8780    -0.2370 ho         1 JBK       0.476000
     16 H5          -0.8590     2.2920     0.3020 hn         1 JBK       0.515000
     17 H6           0.7990     2.6900     0.0200 hn         1 JBK       0.515000
@<TRIPOS>BOND
     1     1     5 ar  
     2     1     9 ar  
     3     1    11 1   
     4     2     3 1   
     5     3     4 1   
     6     3     5 1   
     7     5     6 ar  
     8     6     7 ar  
     9     6    12 1   
    10     7     8 ar  
    11     7    13 1   
    12     8     9 ar  
    13     8    14 1   
    14     9    10 1   
    15    10    15 1   
    16    11    16 1   
    17    11    17 1   
@<TRIPOS>SUBSTRUCTURE
     1 JBK         1 TEMP              0 ****  ****    0 ROOT
