@<TRIPOS>MOLECULE
JBK
   17    17     1     0     0
SMALL
bcc


@<TRIPOS>ATOM
      1 C10          0.3680     0.7080    -0.0160 ca         1 JBK       0.273600
      2 O01         -2.7660    -0.9830     0.1120 o          1 JBK      -0.236000
      3 N02         -1.9830    -0.0560     0.0930 no         1 JBK       0.329200
      4 O03         -2.3570     1.1050     0.1460 o          1 JBK      -0.236000
      5 C04         -0.5840    -0.3350     0.0030 ca         1 JBK      -0.278200
      6 C05         -0.2020    -1.6880    -0.0590 ca         1 JBK      -0.046000
      7 C06          1.1190    -2.0250    -0.1390 ca         1 JBK      -0.170000
      8 C07          2.0930    -1.0160    -0.1620 ca         1 JBK      -0.130000
      9 C08          1.7350     0.3050    -0.1040 ca         1 JBK       0.030100
     10 O09          2.6190     1.3240    -0.1240 oh         1 JBK      -0.512100
     11 N11          0.1160     2.0270     0.0180 nv         1 JBK      -0.829200
     12 H1          -0.9570    -2.4590    -0.0430 ha         1 JBK       0.168000
     13 H2           1.4170    -3.0620    -0.1880 ha         1 JBK       0.146000
     14 H3           3.1420    -1.2800    -0.2280 ha         1 JBK       0.137000
     15 H4           3.5230     0.9900    -0.1520 ho         1 JBK       0.437000
     16 H5          -0.8110     2.3620     0.2000 hn         1 JBK       0.459800
     17 H6           0.8800     2.6670     0.1430 hn         1 JBK       0.459800
@<TRIPOS>BOND
     1     1     5 ar  
     2     1     9 ar  
     3     1    11 1   
     4     2     3 1   
     5     3     4 1   
     6     3     5 1   
     7     5     6 ar  
     8     6     7 ar  
     9     6    12 1   
    10     7     8 ar  
    11     7    13 1   
    12     8     9 ar  
    13     8    14 1   
    14     9    10 1   
    15    10    15 1   
    16    11    16 1   
    17    11    17 1   
@<TRIPOS>SUBSTRUCTURE
     1 JBK         1 TEMP              0 ****  ****    0 ROOT
