@<TRIPOS>MOLECULE
JBL
   42    45     1     0     0
SMALL
bcc


@<TRIPOS>ATOM
      1 C11        -17.3130     2.5760     9.6530 cc         1 JBL       0.586500
      2 C12        -18.5750     2.9230     9.0110 ca         1 JBL      -0.211500
      3 C13        -19.3720     3.9330     9.5540 ca         1 JBL      -0.054000
      4 C14        -20.5750     4.2900     8.9740 ca         1 JBL      -0.194000
      5 C15        -20.9980     3.6250     7.8260 ca         1 JBL      -0.089000
      6 C16        -20.2270     2.6200     7.2710 ca         1 JBL      -0.191000
      7 C17        -19.0090     2.2590     7.8500 ca         1 JBL       0.187100
      8 C03        -12.1290    -0.8150     9.4060 ca         1 JBL      -0.118600
      9 C04        -11.9730     0.5360     9.7020 ca         1 JBL      -0.102000
     10 C05        -13.0690     1.3620     9.8890 ca         1 JBL      -0.142500
     11 C06        -14.3460     0.8240     9.8020 ca         1 JBL      -0.055200
     12 C07        -14.5300    -0.5180     9.5040 ca         1 JBL      -0.142500
     13 C08        -13.4210    -1.3240     9.3010 ca         1 JBL      -0.102000
     14 C20        -15.7100     2.5340    11.0080 cd         1 JBL       0.502000
     15 C21        -14.8390     2.7060    12.1740 ca         1 JBL      -0.165500
     16 C22        -14.5460     1.6130    12.9860 ca         1 JBL      -0.050000
     17 C23        -13.7350     1.7510    14.0990 ca         1 JBL      -0.167000
     18 C24        -13.2090     3.0010    14.4020 ca         1 JBL      -0.074000
     19 C25        -13.4870     4.0980    13.6030 ca         1 JBL      -0.238000
     20 C26        -14.3010     3.9600    12.4810 ca         1 JBL       0.174100
     21 N09        -15.4720     1.6530    10.0160 na         1 JBL       0.087500
     22 N10        -16.4950     1.6710     9.1550 nd         1 JBL      -0.579800
     23 N19        -16.8620     3.1310    10.7970 nc         1 JBL      -0.696000
     24 O01         -9.7990    -1.1860     9.3820 o          1 JBL      -0.816300
     25 O18        -18.3130     1.2790     7.2570 oh         1 JBL      -0.513100
     26 O27        -14.5810     4.9800    11.6550 oh         1 JBL      -0.473100
     27 O28        -11.1460    -2.8950     8.8770 o          1 JBL      -0.816300
     28 H1         -19.0310     4.4420    10.4460 ha         1 JBL       0.149000
     29 H2         -21.1770     5.0770     9.4080 ha         1 JBL       0.125000
     30 H3         -21.9370     3.8910     7.3590 ha         1 JBL       0.120000
     31 H4         -20.5560     2.1030     6.3790 ha         1 JBL       0.139000
     32 H5         -10.9780     0.9540     9.7750 ha         1 JBL       0.154500
     33 H6         -12.9300     2.4160    10.0930 ha         1 JBL       0.126000
     34 H7         -15.5290    -0.9290     9.4380 ha         1 JBL       0.126000
     35 H8         -13.5630    -2.3710     9.0700 ha         1 JBL       0.154500
     36 H9         -14.9670     0.6460    12.7430 ha         1 JBL       0.149000
     37 H10        -13.5180     0.8960    14.7240 ha         1 JBL       0.139000
     38 H11        -12.5720     3.1270    15.2680 ha         1 JBL       0.126000
     39 H12        -13.0650     5.0670    13.8450 ha         1 JBL       0.126000
     40 H14        -17.4750     1.1200     7.7340 ho         1 JBL       0.476000
     41 H15        -14.1350     5.7850    11.9440 ho         1 JBL       0.420000
     42 C02        -10.9110    -1.7160     9.2010 c          1 JBL       0.924200
@<TRIPOS>BOND
     1     1     2 1   
     2     1    22 2   
     3     1    23 1   
     4     2     3 ar  
     5     2     7 ar  
     6     3     4 ar  
     7     3    28 1   
     8     4     5 ar  
     9     4    29 1   
    10     5     6 ar  
    11     5    30 1   
    12     6     7 ar  
    13     6    31 1   
    14     7    25 1   
    15     8     9 ar  
    16     8    13 ar  
    17     8    42 1   
    18     9    10 ar  
    19     9    32 1   
    20    10    11 ar  
    21    10    33 1   
    22    11    12 ar  
    23    11    21 1   
    24    12    13 ar  
    25    12    34 1   
    26    13    35 1   
    27    14    15 1   
    28    14    21 1   
    29    14    23 2   
    30    15    16 ar  
    31    15    20 ar  
    32    16    17 ar  
    33    16    36 1   
    34    17    18 ar  
    35    17    37 1   
    36    18    19 ar  
    37    18    38 1   
    38    19    20 ar  
    39    19    39 1   
    40    20    26 1   
    41    21    22 1   
    42    24    42 1   
    43    25    40 1   
    44    26    41 1   
    45    27    42 1   
@<TRIPOS>SUBSTRUCTURE
     1 JBL         1 TEMP              0 ****  ****    0 ROOT
