@<TRIPOS>MOLECULE
JBL
   42    45     1     0     0
SMALL
No Charge or Current Charge


@<TRIPOS>ATOM
      1 C11        -17.3060     2.4780     9.5070 cc         1 JBL       0.586500
      2 C12        -18.5850     2.9450     8.9350 ca         1 JBL      -0.211500
      3 C13        -19.3150     3.9750     9.5830 ca         1 JBL      -0.036000
      4 C14        -20.5340     4.4380     9.0600 ca         1 JBL      -0.176000
      5 C15        -21.0530     3.8860     7.8820 ca         1 JBL      -0.071000
      6 C16        -20.3460     2.8690     7.2270 ca         1 JBL      -0.173000
      7 C17        -19.1270     2.4000     7.7420 ca         1 JBL       0.187100
      8 C03        -12.0060    -0.8210     9.5540 ca         1 JBL      -0.118600
      9 C04        -11.9640     0.5910     9.4700 ca         1 JBL      -0.084000
     10 C05        -13.1420     1.3520     9.5630 ca         1 JBL      -0.124500
     11 C06        -14.3860     0.7190     9.7470 ca         1 JBL      -0.055200
     12 C07        -14.4400    -0.6840     9.8220 ca         1 JBL      -0.124500
     13 C08        -13.2630    -1.4470     9.7290 ca         1 JBL      -0.084000
     14 C20        -15.6820     2.4040    10.8680 cd         1 JBL       0.502000
     15 C21        -14.8190     2.6040    12.0510 ca         1 JBL      -0.165500
     16 C22        -14.3790     1.4810    12.7870 ca         1 JBL      -0.032000
     17 C23        -13.5820     1.6440    13.9320 ca         1 JBL      -0.149000
     18 C24        -13.2200     2.9280    14.3620 ca         1 JBL      -0.056000
     19 C25        -13.6590     4.0510    13.6440 ca         1 JBL      -0.220000
     20 C26        -14.4560     3.8950    12.4980 ca         1 JBL       0.174100
     21 N09        -15.5590     1.4670     9.8480 na         1 JBL       0.087500
     22 N10        -16.5760     1.5220     8.9480 nd         1 JBL      -0.579800
     23 N19        -16.8250     3.0350    10.6610 nc         1 JBL      -0.696000
     24 O01         -9.6680    -1.0630     9.2950 o          1 JBL      -0.711000
     25 O18        -18.4900     1.4090     7.0580 oh         1 JBL      -0.552100
     26 O27        -14.8270     5.0100    11.8070 oh         1 JBL      -0.512100
     27 O28        -10.8150    -2.8640     9.5360 o          1 JBL      -0.711000
     28 H1         -18.9440     4.4290    10.5010 ha         1 JBL       0.131000
     29 H2         -21.0770     5.2280     9.5730 ha         1 JBL       0.107000
     30 H3         -21.9970     4.2460     7.4780 ha         1 JBL       0.102000
     31 H4         -20.7470     2.4390     6.3120 ha         1 JBL       0.121000
     32 H5         -11.0150     1.1040     9.3320 ha         1 JBL       0.136500
     33 H6         -13.0850     2.4360     9.4930 ha         1 JBL       0.108000
     34 H7         -15.3960    -1.1860     9.9570 ha         1 JBL       0.108000
     35 H8         -13.3320    -2.5310     9.7940 ha         1 JBL       0.136500
     36 H9         -14.6630     0.4770    12.4810 ha         1 JBL       0.131000
     37 H10        -13.2490     0.7710    14.4900 ha         1 JBL       0.121000
     38 H11        -12.6020     3.0530    15.2490 ha         1 JBL       0.108000
     39 H12        -13.3690     5.0430    13.9810 ha         1 JBL       0.108000
     40 H14        -17.6600     1.2140     7.5640 ho         1 JBL       0.515000
     41 H15        -14.4830     5.7940    12.2840 ho         1 JBL       0.459000
     42 C02        -10.7320    -1.6460     9.4540 c          1 JBL       0.713600
@<TRIPOS>BOND
     1     1     2 1   
     2     1    22 2   
     3     1    23 1   
     4     2     3 ar  
     5     2     7 ar  
     6     3     4 ar  
     7     3    28 1   
     8     4     5 ar  
     9     4    29 1   
    10     5     6 ar  
    11     5    30 1   
    12     6     7 ar  
    13     6    31 1   
    14     7    25 1   
    15     8     9 ar  
    16     8    13 ar  
    17     8    42 1   
    18     9    10 ar  
    19     9    32 1   
    20    10    11 ar  
    21    10    33 1   
    22    11    12 ar  
    23    11    21 1   
    24    12    13 ar  
    25    12    34 1   
    26    13    35 1   
    27    14    15 1   
    28    14    21 1   
    29    14    23 2   
    30    15    16 ar  
    31    15    20 ar  
    32    16    17 ar  
    33    16    36 1   
    34    17    18 ar  
    35    17    37 1   
    36    18    19 ar  
    37    18    38 1   
    38    19    20 ar  
    39    19    39 1   
    40    20    26 1   
    41    21    22 1   
    42    24    42 1   
    43    25    40 1   
    44    26    41 1   
    45    27    42 1   
@<TRIPOS>SUBSTRUCTURE
     1 JBL         1 TEMP              0 ****  ****    0 ROOT
