@<TRIPOS>MOLECULE
JBN
   12    12     1     0     0
SMALL
abcg2


@<TRIPOS>ATOM
      1 O01        -18.7420    15.8160   -12.7090 o          1 JBN      -0.583100
      2 C02        -18.3930    16.9870   -12.5880 c          1 JBN       0.530600
      3 N03        -17.1210    17.3920   -12.4570 nt         1 JBN      -0.591000
      4 C04        -19.4170    18.0640   -12.5840 cc         1 JBN       0.116500
      5 O05        -19.0210    19.3490   -12.4640 os         1 JBN      -0.103700
      6 N06        -20.1470    20.1710   -12.4840 nc         1 JBN      -0.338300
      7 C07        -21.1690    19.3640   -12.6140 cd         1 JBN       0.257900
      8 C08        -20.7700    18.0060   -12.6840 cd         1 JBN      -0.171000
      9 H1         -16.3830    16.7050   -12.4490 hn         1 JBN       0.330500
     10 H2         -16.8780    18.3640   -12.3530 hn         1 JBN       0.330500
     11 H3         -22.1660    19.7770   -12.6540 h4         1 JBN       0.051100
     12 H4         -21.3870    17.1320   -12.7900 ha         1 JBN       0.170000
@<TRIPOS>BOND
     1     1     2 2   
     2     2     3 1   
     3     2     4 1   
     4     3     9 1   
     5     3    10 1   
     6     4     5 1   
     7     4     8 2   
     8     5     6 1   
     9     6     7 2   
    10     7     8 1   
    11     7    11 1   
    12     8    12 1   
@<TRIPOS>SUBSTRUCTURE
     1 JBN         1 TEMP              0 ****  ****    0 ROOT
