@<TRIPOS>MOLECULE
JBN
   12    12     1     0     0
SMALL
No Charge or Current Charge


@<TRIPOS>ATOM
      1 O01        -18.7140    15.8170   -12.6950 o          1 JBN      -0.583100
      2 C02        -18.4070    16.9950   -12.5840 c          1 JBN       0.530600
      3 N03        -17.1020    17.3360   -12.4600 nt         1 JBN      -0.591000
      4 C04        -19.3800    18.1210   -12.5730 cc         1 JBN       0.116500
      5 O05        -19.0240    19.4450   -12.4470 os         1 JBN      -0.103700
      6 N06        -20.2300    20.2440   -12.4780 nc         1 JBN      -0.338300
      7 C07        -21.2070    19.3620   -12.6180 cd         1 JBN       0.257900
      8 C08        -20.7350    18.0400   -12.6810 cd         1 JBN      -0.171000
      9 H1         -16.3970    16.6120   -12.4610 hn         1 JBN       0.330500
     10 H2         -16.8390    18.3070   -12.3680 hn         1 JBN       0.330500
     11 H3         -22.2310    19.7080   -12.6690 h4         1 JBN       0.051100
     12 H4         -21.3280    17.1400   -12.7930 ha         1 JBN       0.170000
@<TRIPOS>BOND
     1     1     2 2   
     2     2     3 1   
     3     2     4 1   
     4     3     9 1   
     5     3    10 1   
     6     4     5 1   
     7     4     8 2   
     8     5     6 1   
     9     6     7 2   
    10     7     8 1   
    11     7    11 1   
    12     8    12 1   
@<TRIPOS>SUBSTRUCTURE
     1 JBN         1 TEMP              0 ****  ****    0 ROOT
