@<TRIPOS>MOLECULE
JBO
   31    32     1     0     0
SMALL
bcc


@<TRIPOS>ATOM
      1 C02        -21.4170     5.2260     8.5670 c3         1 JBO       0.715200
      2 C04        -20.5980     3.9760     8.4170 ca         1 JBO      -0.171300
      3 C05        -19.2820     3.9240     8.8910 ca         1 JBO      -0.081300
      4 C06        -18.5810     5.0930     9.5280 c3         1 JBO      -0.061800
      5 C07        -18.5740     2.7050     8.7740 ca         1 JBO       0.209600
      6 C09        -16.2640     1.7990     9.0880 ca         1 JBO       0.689200
      7 C10        -15.0770     1.9560     9.8590 ca         1 JBO      -0.306900
      8 C11        -14.8870     3.0200    10.9310 c          1 JBO       0.940200
      9 C14        -14.0430     1.0800     9.5890 ca         1 JBO      -0.048000
     10 C15        -14.1660     0.0990     8.6110 ca         1 JBO      -0.326300
     11 C16        -15.3600     0.0460     7.9200 ca         1 JBO       0.422200
     12 C18        -19.1860     1.6080     8.1610 ca         1 JBO      -0.150000
     13 C19        -20.4760     1.7040     7.6740 ca         1 JBO      -0.121000
     14 C20        -21.1930     2.8790     7.8020 ca         1 JBO      -0.153000
     15 F01        -22.6700     5.0740     8.1240 f          1 JBO      -0.245967
     16 F03        -21.5180     5.6150     9.8480 f          1 JBO      -0.245967
     17 F21        -20.9070     6.2670     7.8870 f          1 JBO      -0.245967
     18 N08        -17.3030     2.6570     9.3190 nu         1 JBO      -0.775300
     19 N17        -16.3780     0.8670     8.1460 nb         1 JBO      -0.783000
     20 O12        -13.7900     3.0550    11.5030 o          1 JBO      -0.811800
     21 O13        -15.8610     3.7860    11.1550 o          1 JBO      -0.811800
     22 H1         -18.4810     4.9560    10.6070 hc         1 JBO       0.056700
     23 H2         -17.5720     5.1950     9.1270 hc         1 JBO       0.056700
     24 H3         -19.0710     6.0460     9.3720 hc         1 JBO       0.056700
     25 H4         -13.1260     1.1680    10.1560 ha         1 JBO       0.150000
     26 H5         -13.3660    -0.5950     8.3950 ha         1 JBO       0.119000
     27 H6         -15.5130    -0.6940     7.1410 h4         1 JBO      -0.011900
     28 H7         -18.6470     0.6800     8.0660 ha         1 JBO       0.164000
     29 H8         -20.9320     0.8450     7.2010 ha         1 JBO       0.119000
     30 H9         -22.2050     2.9260     7.4270 ha         1 JBO       0.130000
     31 H10        -17.0360     3.3310    10.0540 hn         1 JBO       0.520800
@<TRIPOS>BOND
     1     1     2 1   
     2     1    15 1   
     3     1    16 1   
     4     1    17 1   
     5     2     3 ar  
     6     2    14 ar  
     7     3     4 1   
     8     3     5 ar  
     9     4    22 1   
    10     4    23 1   
    11     4    24 1   
    12     5    12 ar  
    13     5    18 1   
    14     6     7 ar  
    15     6    18 1   
    16     6    19 ar  
    17     7     8 1   
    18     7     9 ar  
    19     8    20 1   
    20     8    21 1   
    21     9    10 ar  
    22     9    25 1   
    23    10    11 ar  
    24    10    26 1   
    25    11    19 ar  
    26    11    27 1   
    27    12    13 ar  
    28    12    28 1   
    29    13    14 ar  
    30    13    29 1   
    31    14    30 1   
    32    18    31 1   
@<TRIPOS>SUBSTRUCTURE
     1 JBO         1 TEMP              0 ****  ****    0 ROOT
