@<TRIPOS>MOLECULE
JBO
   31    32     1     0     0
SMALL
No Charge or Current Charge


@<TRIPOS>ATOM
      1 C02        -21.4370     5.3130     8.4340 c3         1 JBO       0.351300
      2 C04        -20.6380     3.9890     8.4210 ca         1 JBO      -0.171300
      3 C05        -19.2870     3.9050     8.8850 ca         1 JBO      -0.081300
      4 C06        -18.5430     5.1510     9.4030 c3         1 JBO      -0.061800
      5 C07        -18.6140     2.6480     8.8740 ca         1 JBO       0.348000
      6 C09        -16.1960     1.7980     9.1270 ca         1 JBO       0.623900
      7 C10        -15.0430     1.8710     9.9290 ca         1 JBO      -0.241600
      8 C11        -14.9780     2.7490    11.1450 c          1 JBO       0.729600
      9 C14        -13.9320     1.0820     9.5620 ca         1 JBO      -0.030000
     10 C15        -14.0330     0.2860     8.4130 ca         1 JBO      -0.243000
     11 C16        -15.2230     0.3020     7.6730 ca         1 JBO       0.356900
     12 C18        -19.2840     1.5040     8.4060 ca         1 JBO      -0.132000
     13 C19        -20.5950     1.5890     7.9270 ca         1 JBO      -0.103000
     14 C20        -21.2640     2.8170     7.9340 ca         1 JBO      -0.135000
     15 F01        -22.7490     5.1430     8.1480 f          1 JBO      -0.124667
     16 F03        -21.3980     5.9240     9.6410 f          1 JBO      -0.124667
     17 F21        -20.9630     6.1930     7.5220 f          1 JBO      -0.124667
     18 N08        -17.3190     2.5410     9.3960 nu         1 JBO      -0.968900
     19 N17        -16.2880     1.0490     8.0220 nb         1 JBO      -0.783000
     20 O12        -14.1600     2.4730    12.0090 o          1 JBO      -0.706500
     21 O13        -15.7210     3.7180    11.2150 o          1 JBO      -0.706500
     22 H1         -18.6600     5.2530    10.4880 hc         1 JBO       0.056700
     23 H2         -17.4700     5.1160     9.1840 hc         1 JBO       0.056700
     24 H3         -18.8940     6.0800     8.9430 hc         1 JBO       0.056700
     25 H4         -13.0120     1.0910    10.1450 ha         1 JBO       0.132000
     26 H5         -13.2000    -0.3340     8.0930 ha         1 JBO       0.101000
     27 H6         -15.3270    -0.3030     6.7730 h4         1 JBO      -0.011900
     28 H7         -18.7930     0.5370     8.4270 ha         1 JBO       0.146000
     29 H8         -21.1000     0.6970     7.5630 ha         1 JBO       0.101000
     30 H9         -22.2850     2.8440     7.5610 ha         1 JBO       0.112000
     31 H10        -17.0740     3.2670    10.0780 hn         1 JBO       0.576000
@<TRIPOS>BOND
     1     1     2 1   
     2     1    15 1   
     3     1    16 1   
     4     1    17 1   
     5     2     3 ar  
     6     2    14 ar  
     7     3     4 1   
     8     3     5 ar  
     9     4    22 1   
    10     4    23 1   
    11     4    24 1   
    12     5    12 ar  
    13     5    18 1   
    14     6     7 ar  
    15     6    18 1   
    16     6    19 ar  
    17     7     8 1   
    18     7     9 ar  
    19     8    20 1   
    20     8    21 1   
    21     9    10 ar  
    22     9    25 1   
    23    10    11 ar  
    24    10    26 1   
    25    11    19 ar  
    26    11    27 1   
    27    12    13 ar  
    28    12    28 1   
    29    13    14 ar  
    30    13    29 1   
    31    14    30 1   
    32    18    31 1   
@<TRIPOS>SUBSTRUCTURE
     1 JBO         1 TEMP              0 ****  ****    0 ROOT
