@<TRIPOS>MOLECULE
JBQ
   19    20     1     0     0
SMALL
No Charge or Current Charge


@<TRIPOS>ATOM
      1 C10          1.1580    -1.1030     0.3760 c6         1 JBQ       0.514800
      2 F01         -1.5170    -2.1560     0.2920 f          1 JBQ      -0.183000
      3 C02         -1.3590    -0.8250     0.1110 ca         1 JBQ       0.210000
      4 C03         -2.4960    -0.0290    -0.1000 ca         1 JBQ      -0.173000
      5 C04         -2.3600     1.3590    -0.2690 ca         1 JBQ      -0.066000
      6 C05         -1.0830     1.9430    -0.2150 ca         1 JBQ      -0.117000
      7 C06          0.0540     1.1440    -0.0040 ca         1 JBQ       0.203400
      8 N07          1.3200     1.7460     0.0840 ne         1 JBQ      -0.650100
      9 C08          2.3870     1.0460     0.2930 c2         1 JBQ       0.664100
     10 N09          2.3580    -0.3290     0.3750 nu         1 JBQ      -0.951400
     11 O11          1.3730    -1.9430    -0.7110 oh         1 JBQ      -0.657000
     12 C12         -0.0770    -0.2460     0.1480 ca         1 JBQ      -0.195300
     13 H1          -3.4810    -0.4890    -0.1280 ha         1 JBQ       0.132000
     14 H2          -3.2390     1.9800    -0.4310 ha         1 JBQ       0.118000
     15 H3          -0.9740     3.0180    -0.3310 ha         1 JBQ       0.133000
     16 H4           3.3710     1.5120     0.3940 h5         1 JBQ       0.034800
     17 H5           3.1690    -0.7420     0.8280 hn         1 JBQ       0.485000
     18 H7           1.9650    -1.3900    -1.2570 ho         1 JBQ       0.442000
     19 H6           1.0360    -1.6840     1.3060 h2         1 JBQ       0.056700
@<TRIPOS>BOND
     1     1    10 1   
     2     1    11 1   
     3     1    12 1   
     4     1    19 1   
     5     2     3 1   
     6     3     4 ar  
     7     3    12 ar  
     8     4     5 ar  
     9     4    13 1   
    10     5     6 ar  
    11     5    14 1   
    12     6     7 ar  
    13     6    15 1   
    14     7     8 1   
    15     7    12 ar  
    16     8     9 2   
    17     9    10 1   
    18     9    16 1   
    19    10    17 1   
    20    11    18 1   
@<TRIPOS>SUBSTRUCTURE
     1 JBQ         1 TEMP              0 ****  ****    0 ROOT
