@<TRIPOS>MOLECULE
JBQ
   19    20     1     0     0
SMALL
bcc


@<TRIPOS>ATOM
      1 C10          1.1940    -1.0320     0.2120 c6         1 JBQ       0.491600
      2 F01         -1.4000    -2.0990     0.3280 f          1 JBQ      -0.147900
      3 C02         -1.3080    -0.7700     0.1470 ca         1 JBQ       0.174900
      4 C03         -2.4670    -0.0420    -0.0090 ca         1 JBQ      -0.191000
      5 C04         -2.3520     1.3310    -0.2090 ca         1 JBQ      -0.084000
      6 C05         -1.1130     1.9410    -0.2370 ca         1 JBQ      -0.135000
      7 C06          0.0540     1.1870    -0.0640 ca         1 JBQ       0.203400
      8 N07          1.2720     1.8450    -0.0450 ne         1 JBQ      -0.650100
      9 C08          2.2900     1.1430     0.3130 c2         1 JBQ       0.664100
     10 N09          2.2750    -0.1660     0.6050 nu         1 JBQ      -0.896200
     11 O11          1.4030    -1.6100    -1.0530 oh         1 JBQ      -0.594800
     12 C12         -0.0470    -0.1980     0.1260 ca         1 JBQ      -0.195300
     13 H1          -3.4320    -0.5310     0.0150 ha         1 JBQ       0.150000
     14 H2          -3.2470     1.9240    -0.3400 ha         1 JBQ       0.136000
     15 H3          -1.0250     3.0100    -0.3820 ha         1 JBQ       0.151000
     16 H4           3.2520     1.6330     0.4300 h5         1 JBQ       0.034800
     17 H5           3.1370    -0.5920     0.9070 hn         1 JBQ       0.429800
     18 H7           2.0120    -2.3520    -0.9590 ho         1 JBQ       0.403000
     19 H6           1.1050    -1.8110     0.9740 h2         1 JBQ       0.056700
@<TRIPOS>BOND
     1     1    10 1   
     2     1    11 1   
     3     1    12 1   
     4     1    19 1   
     5     2     3 1   
     6     3     4 ar  
     7     3    12 ar  
     8     4     5 ar  
     9     4    13 1   
    10     5     6 ar  
    11     5    14 1   
    12     6     7 ar  
    13     6    15 1   
    14     7     8 1   
    15     7    12 ar  
    16     8     9 2   
    17     9    10 1   
    18     9    16 1   
    19    10    17 1   
    20    11    18 1   
@<TRIPOS>SUBSTRUCTURE
     1 JBQ         1 TEMP              0 ****  ****    0 ROOT
