@<TRIPOS>MOLECULE
JBR
   43    46     1     0     0
SMALL
No Charge or Current Charge


@<TRIPOS>ATOM
      1 C02        -10.0410   -28.6860    30.1880 ca         1 JBR       0.191600
      2 C03        -10.1710   -27.6730    29.1950 ca         1 JBR      -0.193800
      3 C04         -9.4920   -27.8480    27.9530 ca         1 JBR       0.021000
      4 C05         -9.4780   -26.8520    26.9460 ca         1 JBR      -0.093500
      5 C06         -8.8150   -27.0610    25.7250 ca         1 JBR      -0.127500
      6 C07         -8.1430   -28.2660    25.4870 ca         1 JBR      -0.153500
      7 C08         -8.1230   -29.2550    26.4780 ca         1 JBR      -0.096000
      8 C09         -8.7830   -29.0480    27.7060 ca         1 JBR      -0.084000
      9 C10         -8.7130   -30.0500    28.6830 ca         1 JBR      -0.068000
     10 C11         -9.3230   -29.8820    29.9420 ca         1 JBR      -0.190100
     11 C12         -9.1960   -30.9800    30.9870 c          1 JBR       0.727600
     12 C15        -11.0140   -26.4020    29.4970 c3         1 JBR       0.051200
     13 C16        -12.1310   -26.0580    28.4730 ca         1 JBR      -0.193800
     14 C17        -13.1420   -27.0050    28.1220 ca         1 JBR       0.021000
     15 C18        -13.2430   -28.2730    28.7460 ca         1 JBR      -0.093500
     16 C19        -14.2350   -29.1930    28.3680 ca         1 JBR      -0.127500
     17 C20        -15.1550   -28.8650    27.3650 ca         1 JBR      -0.153500
     18 C21        -15.0920   -27.6070    26.7510 ca         1 JBR      -0.096000
     19 C22        -14.1020   -26.6790    27.1300 ca         1 JBR      -0.084000
     20 C23        -14.0880   -25.4190    26.5160 ca         1 JBR      -0.068000
     21 C24        -13.1400   -24.4590    26.8940 ca         1 JBR      -0.190100
     22 C25        -13.1700   -23.1090    26.2470 c          1 JBR       0.727600
     23 C28        -12.1800   -24.7670    27.8720 ca         1 JBR       0.191600
     24 O01        -10.6200   -28.5160    31.4100 oh         1 JBR      -0.583100
     25 O13         -8.5900   -32.0010    30.6960 o          1 JBR      -0.708000
     26 O14         -9.7040   -30.8040    32.0870 o          1 JBR      -0.708000
     27 O26        -12.4420   -22.9180    25.2830 o          1 JBR      -0.708000
     28 O27        -14.0130   -22.3110    26.6320 o          1 JBR      -0.708000
     29 O29        -11.2950   -23.7920    28.2370 oh         1 JBR      -0.583100
     30 H1          -9.9590   -25.8950    27.0920 ha         1 JBR       0.128500
     31 H2          -8.8210   -26.2830    24.9650 ha         1 JBR       0.097000
     32 H3          -7.6300   -28.4280    24.5420 ha         1 JBR       0.082500
     33 H4          -7.5860   -30.1830    26.2930 ha         1 JBR       0.089000
     34 H5          -8.1580   -30.9600    28.4640 ha         1 JBR       0.113500
     35 H6         -10.3000   -25.5810    29.6140 hc         1 JBR       0.034700
     36 H7         -11.4990   -26.4560    30.4770 hc         1 JBR       0.034700
     37 H8         -12.5750   -28.5590    29.5460 ha         1 JBR       0.128500
     38 H9         -14.2910   -30.1620    28.8600 ha         1 JBR       0.097000
     39 H10        -15.9230   -29.5770    27.0730 ha         1 JBR       0.082500
     40 H11        -15.8190   -27.3510    25.9840 ha         1 JBR       0.089000
     41 H12        -14.8270   -25.1720    25.7570 ha         1 JBR       0.113500
     42 H13        -10.3900   -29.3430    31.9190 ho         1 JBR       0.494000
     43 H16        -10.7770   -24.1190    29.0010 ho         1 JBR       0.494000
@<TRIPOS>BOND
     1     1     2 ar  
     2     1    10 ar  
     3     1    24 1   
     4     2     3 ar  
     5     2    12 1   
     6     3     4 ar  
     7     3     8 ar  
     8     4     5 ar  
     9     4    30 1   
    10     5     6 ar  
    11     5    31 1   
    12     6     7 ar  
    13     6    32 1   
    14     7     8 ar  
    15     7    33 1   
    16     8     9 ar  
    17     9    10 ar  
    18     9    34 1   
    19    10    11 1   
    20    11    25 1   
    21    11    26 1   
    22    12    13 1   
    23    12    35 1   
    24    12    36 1   
    25    13    14 ar  
    26    13    23 ar  
    27    14    15 ar  
    28    14    19 ar  
    29    15    16 ar  
    30    15    37 1   
    31    16    17 ar  
    32    16    38 1   
    33    17    18 ar  
    34    17    39 1   
    35    18    19 ar  
    36    18    40 1   
    37    19    20 ar  
    38    20    21 ar  
    39    20    41 1   
    40    21    22 1   
    41    21    23 ar  
    42    22    27 1   
    43    22    28 1   
    44    23    29 1   
    45    24    42 1   
    46    29    43 1   
@<TRIPOS>SUBSTRUCTURE
     1 JBR         1 TEMP              0 ****  ****    0 ROOT
