@<TRIPOS>MOLECULE
JBR
   43    46     1     0     0
SMALL
bcc


@<TRIPOS>ATOM
      1 C02        -10.1480   -28.7170    30.0610 ca         1 JBR       0.191600
      2 C03        -10.2070   -27.6680    29.1550 ca         1 JBR      -0.193800
      3 C04         -9.4530   -27.7570    27.9530 ca         1 JBR       0.021000
      4 C05         -9.3480   -26.6900    27.0230 ca         1 JBR      -0.111500
      5 C06         -8.6230   -26.8160    25.8690 ca         1 JBR      -0.145500
      6 C07         -7.9500   -28.0140    25.5600 ca         1 JBR      -0.171500
      7 C08         -8.0050   -29.0540    26.4450 ca         1 JBR      -0.114000
      8 C09         -8.7370   -28.9490    27.6510 ca         1 JBR      -0.084000
      9 C10         -8.7490   -30.0100    28.5770 ca         1 JBR      -0.086000
     10 C11         -9.4190   -29.9130    29.7620 ca         1 JBR      -0.190100
     11 C12         -9.3980   -31.0580    30.7520 c          1 JBR       0.938200
     12 C15        -11.0320   -26.4400    29.4940 c3         1 JBR       0.051200
     13 C16        -12.1240   -26.0940    28.4970 ca         1 JBR      -0.193800
     14 C17        -13.1720   -27.0310    28.2410 ca         1 JBR       0.021000
     15 C18        -13.3470   -28.2160    28.9980 ca         1 JBR      -0.111500
     16 C19        -14.3560   -29.1010    28.7160 ca         1 JBR      -0.145500
     17 C20        -15.2500   -28.8600    27.6560 ca         1 JBR      -0.171500
     18 C21        -15.1230   -27.7130    26.9210 ca         1 JBR      -0.114000
     19 C22        -14.1040   -26.7770    27.2010 ca         1 JBR      -0.084000
     20 C23        -13.9990   -25.5770    26.4640 ca         1 JBR      -0.086000
     21 C24        -13.0780   -24.6220    26.7800 ca         1 JBR      -0.190100
     22 C25        -13.0810   -23.2980    26.0190 c          1 JBR       0.938200
     23 C28        -12.1460   -24.8890    27.8190 ca         1 JBR       0.191600
     24 O01        -10.7900   -28.6440    31.2240 oh         1 JBR      -0.544100
     25 O13         -8.7580   -32.0740    30.4840 o          1 JBR      -0.813300
     26 O14        -10.0660   -30.8690    31.8190 o          1 JBR      -0.813300
     27 O26        -12.9430   -23.3840    24.7860 o          1 JBR      -0.813300
     28 O27        -13.2670   -22.2750    26.6990 o          1 JBR      -0.813300
     29 O29        -11.2410   -23.9030    28.0130 oh         1 JBR      -0.544100
     30 H1          -9.8190   -25.7420    27.2270 ha         1 JBR       0.146500
     31 H2          -8.5610   -25.9760    25.1870 ha         1 JBR       0.115000
     32 H3          -7.3870   -28.1010    24.6400 ha         1 JBR       0.100500
     33 H4          -7.4790   -29.9790    26.2390 ha         1 JBR       0.107000
     34 H5          -8.2050   -30.9170    28.3430 ha         1 JBR       0.131500
     35 H6         -10.3380   -25.6070    29.6360 hc         1 JBR       0.034700
     36 H7         -11.4780   -26.5760    30.4790 hc         1 JBR       0.034700
     37 H8         -12.7010   -28.4230    29.8390 ha         1 JBR       0.146500
     38 H9         -14.4680   -29.9910    29.3220 ha         1 JBR       0.115000
     39 H10        -16.0360   -29.5710    27.4380 ha         1 JBR       0.100500
     40 H11        -15.8160   -27.5000    26.1140 ha         1 JBR       0.107000
     41 H12        -14.6970   -25.4080    25.6520 ha         1 JBR       0.131500
     42 H13        -10.6020   -29.5670    31.6690 ho         1 JBR       0.455000
     43 H16        -10.6860   -24.0780    28.7800 ho         1 JBR       0.455000
@<TRIPOS>BOND
     1     1     2 ar  
     2     1    10 ar  
     3     1    24 1   
     4     2     3 ar  
     5     2    12 1   
     6     3     4 ar  
     7     3     8 ar  
     8     4     5 ar  
     9     4    30 1   
    10     5     6 ar  
    11     5    31 1   
    12     6     7 ar  
    13     6    32 1   
    14     7     8 ar  
    15     7    33 1   
    16     8     9 ar  
    17     9    10 ar  
    18     9    34 1   
    19    10    11 1   
    20    11    25 1   
    21    11    26 1   
    22    12    13 1   
    23    12    35 1   
    24    12    36 1   
    25    13    14 ar  
    26    13    23 ar  
    27    14    15 ar  
    28    14    19 ar  
    29    15    16 ar  
    30    15    37 1   
    31    16    17 ar  
    32    16    38 1   
    33    17    18 ar  
    34    17    39 1   
    35    18    19 ar  
    36    18    40 1   
    37    19    20 ar  
    38    20    21 ar  
    39    20    41 1   
    40    21    22 1   
    41    21    23 ar  
    42    22    27 1   
    43    22    28 1   
    44    23    29 1   
    45    24    42 1   
    46    29    43 1   
@<TRIPOS>SUBSTRUCTURE
     1 JBR         1 TEMP              0 ****  ****    0 ROOT
