@<TRIPOS>MOLECULE
JBS
   71    76     1     0     0
SMALL
No Charge or Current Charge


@<TRIPOS>ATOM
      1 O2          -2.4050     4.3730     2.0020 os         1 JBS      -0.441000
      2 C7          -1.0650    -0.5020     0.5370 ca         1 JBS      -0.154000
      3 C16          7.0640    -1.5000    -0.8840 c3         1 JBS       0.167000
      4 C19          3.8520     1.0080     0.9950 cc         1 JBS       0.284900
      5 O1           7.3200    -0.2310    -1.4930 oh         1 JBS      -0.638000
      6 C17          6.0750    -2.2680    -1.7930 c3         1 JBS      -0.127600
      7 C18          8.4120    -2.2520    -0.8150 c3         1 JBS      -0.127600
      8 N3           5.2090    -0.5810     0.6530 na         1 JBS       0.135800
      9 N4           5.1490     0.7740     0.9720 nd         1 JBS      -0.509800
     10 C13          3.0750    -0.1260     0.7300 cc         1 JBS      -0.282500
     11 C14          3.9400    -1.1600     0.5170 cd         1 JBS      -0.118000
     12 C9           1.6210    -0.2700     0.6660 ca         1 JBS       0.278500
     13 N2           1.1130    -1.4770     0.3310 nb         1 JBS      -0.205000
     14 C10         -0.2270    -1.6040     0.2640 ca         1 JBS       0.050000
     15 C11         -0.8160    -2.8300    -0.0860 ca         1 JBS      -0.101000
     16 C12         -2.2130    -2.9600    -0.1690 ca         1 JBS      -0.078000
     17 C5          -3.0610    -1.8640     0.0960 ca         1 JBS      -0.020000
     18 C2          -4.5270    -1.9900    -0.0080 cc         1 JBS      -0.179000
     19 C1          -5.2170    -3.0960     0.4060 cd         1 JBS       0.200300
     20 C           -4.7780    -4.4040     1.0120 c3         1 JBS      -0.139400
     21 O           -6.5640    -2.8580     0.3210 os         1 JBS      -0.071700
     22 N           -6.7690    -1.5090    -0.1220 nd         1 JBS      -0.365300
     23 C3          -5.5440    -1.0380    -0.2770 cc         1 JBS       0.291300
     24 C4          -5.2940     0.3630    -0.7640 c3         1 JBS      -0.135400
     25 C6          -2.4670    -0.6340     0.4460 ca         1 JBS      -0.051000
     26 C8          -0.4430     0.7180     0.8860 ca         1 JBS       0.367900
     27 N1           0.8960     0.8290     0.9520 nb         1 JBS      -0.235000
     28 N5          -1.1820     1.8840     1.1780 nh         1 JBS      -0.755300
     29 C20         -1.7200     2.0680     2.5610 c6         1 JBS       0.154800
     30 C21         -2.8480     3.1390     2.6130 c6         1 JBS       0.149600
     31 C22         -2.0320     4.1990     0.6150 c6         1 JBS       0.147600
     32 C23         -0.8650     3.1700     0.4710 c6         1 JBS       0.222800
     33 C24         -0.5230     2.9300    -1.0090 ca         1 JBS      -0.079300
     34 C25         -1.4630     2.3350    -1.8760 ca         1 JBS      -0.094000
     35 C26         -1.1390     2.0990    -3.2230 ca         1 JBS      -0.111500
     36 C27          0.1280     2.4560    -3.7140 ca         1 JBS      -0.105000
     37 C28          1.0720     3.0460    -2.8560 ca         1 JBS      -0.111500
     38 C29          0.7480     3.2820    -1.5080 ca         1 JBS      -0.094000
     39 H1           3.5050     2.0110     1.2120 h4         1 JBS       0.049100
     40 H2           7.6480    -0.4080    -2.4010 ho         1 JBS       0.442000
     41 H3           5.1580    -1.6910    -1.9630 hc         1 JBS       0.046200
     42 H4           6.5210    -2.4760    -2.7740 hc         1 JBS       0.046200
     43 H5           5.7960    -3.2280    -1.3400 hc         1 JBS       0.046200
     44 H6           8.2800    -3.2440    -0.3650 hc         1 JBS       0.046200
     45 H7           8.8420    -2.3900    -1.8140 hc         1 JBS       0.046200
     46 H8           9.1390    -1.6990    -0.2060 hc         1 JBS       0.046200
     47 H9           6.3830    -2.2660     1.0380 h1         1 JBS       0.072700
     48 H10          7.2420    -0.7310     1.1480 h1         1 JBS       0.072700
     49 H11          3.7800    -2.2080     0.2870 h4         1 JBS       0.164000
     50 H12         -0.1850    -3.6870    -0.3080 ha         1 JBS       0.133000
     51 H13         -2.6240    -3.9140    -0.4830 ha         1 JBS       0.116000
     52 H14         -5.5800    -4.8430     1.6180 hc         1 JBS       0.064700
     53 H15         -4.5170    -5.1300     0.2340 hc         1 JBS       0.064700
     54 H16         -3.9100    -4.2680     1.6670 hc         1 JBS       0.064700
     55 H17         -5.1730     1.0550     0.0770 hc         1 JBS       0.058033
     56 H18         -4.3950     0.4100    -1.3900 hc         1 JBS       0.058033
     57 H19         -6.1340     0.7210    -1.3710 hc         1 JBS       0.058033
     58 H20         -3.0930     0.2190     0.6800 ha         1 JBS       0.126000
     59 H21         -2.1230     1.1170     2.9410 h1         1 JBS       0.055700
     60 H22         -0.9100     2.3720     3.2390 h1         1 JBS       0.055700
     61 H23         -3.1300     3.3330     3.6570 h1         1 JBS       0.054200
     62 H24         -3.7370     2.7710     2.0810 h1         1 JBS       0.054200
     63 H25         -2.9100     3.8580     0.0480 h1         1 JBS       0.057200
     64 H26         -1.7210     5.1700     0.2030 h1         1 JBS       0.057200
     65 H27          0.0150     3.6200     0.9530 h1         1 JBS       0.064700
     66 H28         -2.4410     2.0440    -1.5010 ha         1 JBS       0.115000
     67 H29         -1.8680     1.6360    -3.8840 ha         1 JBS       0.112500
     68 H30          0.3800     2.2720    -4.7560 ha         1 JBS       0.111000
     69 H31          2.0540     3.3180    -3.2340 ha         1 JBS       0.112500
     70 H32          1.4890     3.7330    -0.8510 ha         1 JBS       0.115000
     71 C15          6.5040    -1.2880     0.5580 c3         1 JBS       0.094600
@<TRIPOS>BOND
     1     1    30 1   
     2     1    31 1   
     3     2    14 ar  
     4     2    25 ar  
     5     2    26 ar  
     6     3     5 1   
     7     3     6 1   
     8     3     7 1   
     9     3    71 1   
    10     4     9 2   
    11     4    10 1   
    12     4    39 1   
    13     5    40 1   
    14     6    41 1   
    15     6    42 1   
    16     6    43 1   
    17     7    44 1   
    18     7    45 1   
    19     7    46 1   
    20     8     9 1   
    21     8    11 1   
    22     8    71 1   
    23    10    11 2   
    24    10    12 1   
    25    11    49 1   
    26    12    13 ar  
    27    12    27 ar  
    28    13    14 ar  
    29    14    15 ar  
    30    15    16 ar  
    31    15    50 1   
    32    16    17 ar  
    33    16    51 1   
    34    17    18 1   
    35    17    25 ar  
    36    18    19 2   
    37    18    23 1   
    38    19    20 1   
    39    19    21 1   
    40    20    52 1   
    41    20    53 1   
    42    20    54 1   
    43    21    22 1   
    44    22    23 2   
    45    23    24 1   
    46    24    55 1   
    47    24    56 1   
    48    24    57 1   
    49    25    58 1   
    50    26    27 ar  
    51    26    28 1   
    52    28    29 1   
    53    28    32 1   
    54    29    30 1   
    55    29    59 1   
    56    29    60 1   
    57    30    61 1   
    58    30    62 1   
    59    31    32 1   
    60    31    63 1   
    61    31    64 1   
    62    32    33 1   
    63    32    65 1   
    64    33    34 ar  
    65    33    38 ar  
    66    34    35 ar  
    67    34    66 1   
    68    35    36 ar  
    69    35    67 1   
    70    36    37 ar  
    71    36    68 1   
    72    37    38 ar  
    73    37    69 1   
    74    38    70 1   
    75    47    71 1   
    76    48    71 1   
@<TRIPOS>SUBSTRUCTURE
     1 JBS         1 TEMP              0 ****  ****    0 ROOT
