@<TRIPOS>MOLECULE
JBS
   71    76     1     0     0
SMALL
abcg2


@<TRIPOS>ATOM
      1 O2          -2.3830     4.2310     1.9420 os         1 JBS      -0.441000
      2 C7          -1.2050    -0.6100     0.6500 ca         1 JBS      -0.154000
      3 C16          6.8550    -1.4070    -1.1560 c3         1 JBS       0.167000
      4 C19          3.6460     0.9970     0.4830 cc         1 JBS       0.284900
      5 O1           6.9970    -0.1220    -1.7320 oh         1 JBS      -0.638000
      6 C17          5.8700    -2.2510    -1.9600 c3         1 JBS      -0.127600
      7 C18          8.2060    -2.1150    -1.0710 c3         1 JBS      -0.127600
      8 N3           5.0640    -0.5620     0.3800 na         1 JBS       0.135800
      9 N4           4.9390     0.7680     0.4020 nd         1 JBS      -0.509800
     10 C13          2.9120    -0.2060     0.5090 cc         1 JBS      -0.282500
     11 C14          3.8820    -1.1880     0.4400 cd         1 JBS      -0.118000
     12 C9           1.4750    -0.3850     0.5940 ca         1 JBS       0.278500
     13 N2           0.9940    -1.6010     0.5280 nb         1 JBS      -0.205000
     14 C10         -0.3520    -1.7280     0.5450 ca         1 JBS       0.050000
     15 C11         -0.9320    -3.0070     0.4050 ca         1 JBS      -0.101000
     16 C12         -2.2900    -3.1440     0.3270 ca         1 JBS      -0.078000
     17 C5          -3.1520    -2.0220     0.3850 ca         1 JBS      -0.020000
     18 C2          -4.5980    -2.1950     0.2600 cc         1 JBS      -0.179000
     19 C1          -5.3860    -3.1530     0.8220 cd         1 JBS       0.200300
     20 C           -5.1080    -4.2830     1.7370 c3         1 JBS      -0.139400
     21 O           -6.6470    -2.9650     0.4340 os         1 JBS      -0.071700
     22 N           -6.7260    -1.8830    -0.3940 nd         1 JBS      -0.365300
     23 C3          -5.5190    -1.4110    -0.5000 cc         1 JBS       0.291300
     24 C4          -5.2430    -0.2110    -1.3350 c3         1 JBS      -0.135400
     25 C6          -2.5950    -0.7720     0.5400 ca         1 JBS      -0.051000
     26 C8          -0.5490     0.6520     0.8100 ca         1 JBS       0.367900
     27 N1           0.7510     0.7460     0.7550 nb         1 JBS      -0.235000
     28 N5          -1.3030     1.7990     0.9880 nh         1 JBS      -0.755300
     29 C20         -2.0270     1.8770     2.2620 c6         1 JBS       0.154800
     30 C21         -3.0270     3.0090     2.2190 c6         1 JBS       0.149600
     31 C22         -1.7250     4.1690     0.7030 c6         1 JBS       0.147600
     32 C23         -0.6610     3.0660     0.6440 c6         1 JBS       0.222800
     33 C24         -0.0890     3.0540    -0.7500 ca         1 JBS      -0.079300
     34 C25         -0.8130     2.5280    -1.8170 ca         1 JBS      -0.094000
     35 C26         -0.3000     2.5750    -3.1060 ca         1 JBS      -0.111500
     36 C27          0.9380     3.1570    -3.3450 ca         1 JBS      -0.105000
     37 C28          1.6600     3.6920    -2.2870 ca         1 JBS      -0.111500
     38 C29          1.1470     3.6380    -0.9980 ca         1 JBS      -0.094000
     39 H1           3.2640     2.0050     0.5230 h4         1 JBS       0.049100
     40 H2           7.2800    -0.2340    -2.6460 ho         1 JBS       0.442000
     41 H3           4.9250    -1.7310    -2.1160 hc         1 JBS       0.046200
     42 H4           6.2870    -2.4810    -2.9430 hc         1 JBS       0.046200
     43 H5           5.6580    -3.2000    -1.4670 hc         1 JBS       0.046200
     44 H6           8.1120    -3.1010    -0.6150 hc         1 JBS       0.046200
     45 H7           8.6270    -2.2560    -2.0690 hc         1 JBS       0.046200
     46 H8           8.9210    -1.5360    -0.4830 hc         1 JBS       0.046200
     47 H9           6.3220    -2.1360     0.8010 h1         1 JBS       0.072700
     48 H10          7.0720    -0.5450     0.8130 h1         1 JBS       0.072700
     49 H11          3.8010    -2.2630     0.4400 h4         1 JBS       0.164000
     50 H12         -0.2810    -3.8680     0.3280 ha         1 JBS       0.133000
     51 H13         -2.7110    -4.1300     0.1770 ha         1 JBS       0.116000
     52 H14         -5.8790    -4.3660     2.5030 hc         1 JBS       0.064700
     53 H15         -5.0720    -5.2310     1.1960 hc         1 JBS       0.064700
     54 H16         -4.1500    -4.1440     2.2320 hc         1 JBS       0.064700
     55 H17         -5.1510     0.6820    -0.7160 hc         1 JBS       0.058033
     56 H18         -4.3120    -0.3250    -1.8890 hc         1 JBS       0.058033
     57 H19         -6.0500    -0.0410    -2.0440 hc         1 JBS       0.058033
     58 H20         -3.2330     0.1000     0.5750 ha         1 JBS       0.126000
     59 H21         -2.5450     0.9410     2.4650 h1         1 JBS       0.055700
     60 H22         -1.3200     2.0410     3.0860 h1         1 JBS       0.055700
     61 H23         -3.5200     3.1040     3.1870 h1         1 JBS       0.054200
     62 H24         -3.7960     2.7960     1.4620 h1         1 JBS       0.054200
     63 H25         -2.4490     4.0040    -0.1070 h1         1 JBS       0.057200
     64 H26         -1.2450     5.1340     0.5350 h1         1 JBS       0.057200
     65 H27          0.1370     3.3050     1.3600 h1         1 JBS       0.064700
     66 H28         -1.7800     2.0720    -1.6410 ha         1 JBS       0.115000
     67 H29         -0.8710     2.1580    -3.9260 ha         1 JBS       0.112500
     68 H30          1.3370     3.1950    -4.3510 ha         1 JBS       0.111000
     69 H31          2.6260     4.1470    -2.4630 ha         1 JBS       0.112500
     70 H32          1.7170     4.0510    -0.1740 ha         1 JBS       0.115000
     71 C15          6.3660    -1.1800     0.2780 c3         1 JBS       0.094600
@<TRIPOS>BOND
     1     1    30 1   
     2     1    31 1   
     3     2    14 ar  
     4     2    25 ar  
     5     2    26 ar  
     6     3     5 1   
     7     3     6 1   
     8     3     7 1   
     9     3    71 1   
    10     4     9 2   
    11     4    10 1   
    12     4    39 1   
    13     5    40 1   
    14     6    41 1   
    15     6    42 1   
    16     6    43 1   
    17     7    44 1   
    18     7    45 1   
    19     7    46 1   
    20     8     9 1   
    21     8    11 1   
    22     8    71 1   
    23    10    11 2   
    24    10    12 1   
    25    11    49 1   
    26    12    13 ar  
    27    12    27 ar  
    28    13    14 ar  
    29    14    15 ar  
    30    15    16 ar  
    31    15    50 1   
    32    16    17 ar  
    33    16    51 1   
    34    17    18 1   
    35    17    25 ar  
    36    18    19 2   
    37    18    23 1   
    38    19    20 1   
    39    19    21 1   
    40    20    52 1   
    41    20    53 1   
    42    20    54 1   
    43    21    22 1   
    44    22    23 2   
    45    23    24 1   
    46    24    55 1   
    47    24    56 1   
    48    24    57 1   
    49    25    58 1   
    50    26    27 ar  
    51    26    28 1   
    52    28    29 1   
    53    28    32 1   
    54    29    30 1   
    55    29    59 1   
    56    29    60 1   
    57    30    61 1   
    58    30    62 1   
    59    31    32 1   
    60    31    63 1   
    61    31    64 1   
    62    32    33 1   
    63    32    65 1   
    64    33    34 ar  
    65    33    38 ar  
    66    34    35 ar  
    67    34    66 1   
    68    35    36 ar  
    69    35    67 1   
    70    36    37 ar  
    71    36    68 1   
    72    37    38 ar  
    73    37    69 1   
    74    38    70 1   
    75    47    71 1   
    76    48    71 1   
@<TRIPOS>SUBSTRUCTURE
     1 JBS         1 TEMP              0 ****  ****    0 ROOT
