@<TRIPOS>MOLECULE
JBU
   21    20     1     0     0
SMALL
No Charge or Current Charge


@<TRIPOS>ATOM
      1 C1         -19.0860   -36.3630     7.1830 c          1 JBU       0.656000
      2 C2         -17.5700   -36.7300     7.6250 c          1 JBU       0.436100
      3 C3         -16.9230   -37.9630     6.9620 c3         1 JBU      -0.220400
      4 C4         -15.9440   -37.5750     5.8270 c3         1 JBU       0.147300
      5 C5         -16.5420   -36.6260     4.7200 c3         1 JBU       0.200300
      6 C6         -15.4880   -36.2590     3.6260 c3         1 JBU       0.160600
      7 O8         -19.8070   -35.7690     7.9810 o          1 JBU      -0.691500
      8 O9         -19.4520   -36.6790     6.0520 o          1 JBU      -0.691500
      9 O10        -16.9400   -36.0710     8.4570 o          1 JBU      -0.561100
     10 O11        -15.4380   -38.7940     5.2580 oh         1 JBU      -0.722000
     11 O12        -17.7300   -37.1960     4.1180 oh         1 JBU      -0.695000
     12 O7         -15.9550   -35.2030     2.7610 oh         1 JBU      -0.709000
     13 H1         -17.7080   -38.6000     6.5400 hc         1 JBU       0.054200
     14 H2         -16.3680   -38.5190     7.7280 hc         1 JBU       0.054200
     15 H3         -15.1110   -37.0300     6.2930 h1         1 JBU       0.021700
     16 H4         -16.8080   -35.6830     5.2170 h1         1 JBU       0.048700
     17 H5         -15.2510   -37.1550     3.0360 h1         1 JBU       0.016200
     18 H6         -14.5610   -35.9420     4.1240 h1         1 JBU       0.016200
     19 H8         -15.1050   -39.3430     6.0040 ho         1 JBU       0.483000
     20 H9         -18.4640   -37.0550     4.7840 ho         1 JBU       0.516000
     21 H10        -15.2800   -35.0970     2.0520 ho         1 JBU       0.479000
@<TRIPOS>BOND
     1     1     2 1   
     2     1     7 1   
     3     1     8 1   
     4     2     3 1   
     5     2     9 2   
     6     3     4 1   
     7     3    13 1   
     8     3    14 1   
     9     4     5 1   
    10     4    10 1   
    11     4    15 1   
    12     5     6 1   
    13     5    11 1   
    14     5    16 1   
    15     6    12 1   
    16     6    17 1   
    17     6    18 1   
    18    10    19 1   
    19    11    20 1   
    20    12    21 1   
@<TRIPOS>SUBSTRUCTURE
     1 JBU         1 TEMP              0 ****  ****    0 ROOT
