@<TRIPOS>MOLECULE
JBU
   21    20     1     0     0
SMALL
bcc


@<TRIPOS>ATOM
      1 C1         -19.0960   -36.3890     7.2530 c          1 JBU       0.866600
      2 C2         -17.6210   -36.7240     7.5610 c          1 JBU       0.436100
      3 C3         -16.9990   -37.9210     6.8810 c3         1 JBU      -0.220400
      4 C4         -15.9440   -37.5260     5.8310 c3         1 JBU       0.124100
      5 C5         -16.5210   -36.6250     4.7320 c3         1 JBU       0.177100
      6 C6         -15.4840   -36.3540     3.6570 c3         1 JBU       0.137400
      7 O8         -19.7820   -35.9900     8.1940 o          1 JBU      -0.796800
      8 O9         -19.4380   -36.5470     6.0560 o          1 JBU      -0.796800
      9 O10        -16.9740   -36.0220     8.3050 o          1 JBU      -0.561100
     10 O11        -15.3990   -38.6760     5.2280 oh         1 JBU      -0.599800
     11 O12        -17.6750   -37.1580     4.1440 oh         1 JBU      -0.632800
     12 O7         -15.9470   -35.3060     2.8340 oh         1 JBU      -0.586800
     13 H1         -17.7560   -38.5570     6.4220 hc         1 JBU       0.054200
     14 H2         -16.4980   -38.5130     7.6540 hc         1 JBU       0.054200
     15 H3         -15.1620   -36.9480     6.3440 h1         1 JBU       0.021700
     16 H4         -16.7360   -35.6580     5.2170 h1         1 JBU       0.048700
     17 H5         -15.3060   -37.2690     3.0790 h1         1 JBU       0.016200
     18 H6         -14.5340   -36.0920     4.1440 h1         1 JBU       0.016200
     19 H8         -14.9410   -39.1880     5.9030 ho         1 JBU       0.384000
     20 H9         -18.4020   -36.9980     4.7880 ho         1 JBU       0.477000
     21 H10        -15.3150   -35.1890     2.1200 ho         1 JBU       0.380000
@<TRIPOS>BOND
     1     1     2 1   
     2     1     7 1   
     3     1     8 1   
     4     2     3 1   
     5     2     9 2   
     6     3     4 1   
     7     3    13 1   
     8     3    14 1   
     9     4     5 1   
    10     4    10 1   
    11     4    15 1   
    12     5     6 1   
    13     5    11 1   
    14     5    16 1   
    15     6    12 1   
    16     6    17 1   
    17     6    18 1   
    18    10    19 1   
    19    11    20 1   
    20    12    21 1   
@<TRIPOS>SUBSTRUCTURE
     1 JBU         1 TEMP              0 ****  ****    0 ROOT
