@<TRIPOS>MOLECULE
JBV
   49    52     1     0     0
SMALL
abcg2


@<TRIPOS>ATOM
      1 C10         89.0520   -10.1140    15.7590 c3         1 JBV      -0.141400
      2 C13         93.1240   -11.4190    11.7550 c3         1 JBV      -0.109700
      3 C17         93.5700   -12.9910     8.6050 cc         1 JBV       0.804900
      4 C20         95.8700   -11.0520    10.3120 c3         1 JBV       0.075900
      5 C21         94.0420   -14.0060     6.4380 c5         1 JBV       0.247800
      6 C22         93.1530   -14.8270     5.5030 c5         1 JBV      -0.149700
      7 C23         92.2450   -15.5850     6.4730 c5         1 JBV      -0.092400
      8 C24         91.9780   -14.5660     7.5770 c5         1 JBV       0.245800
      9 C25         93.9550   -15.7310     4.6120 c3         1 JBV       0.183300
     10 N1          90.3060    -8.2340    16.6620 nc         1 JBV      -0.648000
     11 C2          91.3200    -7.3390    16.6050 cc         1 JBV       0.284900
     12 C3          92.2400    -7.2800    15.5990 cd         1 JBV      -0.089300
     13 C4          90.1600    -9.1190    15.7160 cd         1 JBV       0.404300
     14 C5          91.0700    -9.1340    14.6300 cd         1 JBV      -0.121000
     15 N6          92.0710    -8.2090    14.6170 na         1 JBV       0.310400
     16 N7          92.8220    -8.3680    13.5300 nd         1 JBV      -0.593100
     17 C8          92.2390    -9.3900    12.9180 cc         1 JBV       0.523300
     18 N9          91.1690    -9.8930    13.5510 nc         1 JBV      -0.377300
     19 C12         92.7450    -9.9360    11.6310 c3         1 JBV      -0.078700
     20 C14         93.5430   -11.9950    10.4480 cd         1 JBV       0.451800
     21 N15         94.7230   -11.7960     9.8620 na         1 JBV      -0.060700
     22 N16         94.7650   -12.4340     8.6700 nd         1 JBV      -0.614800
     23 N18         92.7810   -12.7500     9.6770 nc         1 JBV      -0.747000
     24 N19         93.1640   -13.7320     7.5500 nh         1 JBV      -0.797300
     25 F26         94.7690   -14.9940     3.7990 f          1 JBV      -0.123500
     26 F27         93.1330   -16.4480     3.7930 f          1 JBV      -0.123500
     27 H30         88.4440    -9.9650    16.6480 hc         1 JBV       0.065367
     28 H31         88.4130   -10.0240    14.8790 hc         1 JBV       0.065367
     29 H29         89.4430   -11.1320    15.7670 hc         1 JBV       0.065367
     30 H33         94.3250    -6.8440    15.4590 hc         1 JBV       0.064033
     31 H32         93.2900    -5.7160    14.5920 hc         1 JBV       0.064033
     32 H34         93.3700    -5.6590    16.3580 hc         1 JBV       0.064033
     33 H37         93.9100   -11.5420    12.5030 hc         1 JBV       0.076700
     34 H38         92.2620   -11.9880    12.1020 hc         1 JBV       0.076700
     35 H39         96.0620   -10.2110     9.6470 h1         1 JBV       0.056367
     36 H40         95.6940   -10.6720    11.3140 h1         1 JBV       0.056367
     37 H41         96.7460   -11.6970    10.3330 h1         1 JBV       0.056367
     38 H43         94.3960   -13.0860     5.9690 h1         1 JBV       0.054700
     39 H42         94.9280   -14.5770     6.7500 h1         1 JBV       0.054700
     40 H44         92.5540   -14.1550     4.8810 hc         1 JBV       0.089700
     41 H46         91.3280   -15.9430     6.0080 hc         1 JBV       0.058700
     42 H45         92.7750   -16.4500     6.8820 hc         1 JBV       0.058700
     43 H47         91.8410   -15.0450     8.5480 h1         1 JBV       0.055200
     44 H48         91.0750   -13.9830     7.3690 h1         1 JBV       0.055200
     45 H49         94.5790   -16.4340     5.1690 h2         1 JBV       0.058700
     46 H28         91.3890    -6.6330    17.4220 h4         1 JBV       0.039100
     47 H36         91.9710    -9.8250    10.8680 hc         1 JBV       0.071200
     48 H35         93.6020    -9.3440    11.3080 hc         1 JBV       0.071200
     49 C11         93.3680    -6.3220    15.4960 c3         1 JBV      -0.041800
@<TRIPOS>BOND
     1     1    13 1   
     2     1    27 1   
     3     1    28 1   
     4     1    29 1   
     5     2    19 1   
     6     2    20 1   
     7     2    33 1   
     8     2    34 1   
     9     3    22 2   
    10     3    23 1   
    11     3    24 1   
    12     4    21 1   
    13     4    35 1   
    14     4    36 1   
    15     4    37 1   
    16     5     6 1   
    17     5    24 1   
    18     5    38 1   
    19     5    39 1   
    20     6     7 1   
    21     6     9 1   
    22     6    40 1   
    23     7     8 1   
    24     7    41 1   
    25     7    42 1   
    26     8    24 1   
    27     8    43 1   
    28     8    44 1   
    29     9    25 1   
    30     9    26 1   
    31     9    45 1   
    32    10    11 1   
    33    10    13 2   
    34    11    12 2   
    35    11    46 1   
    36    12    15 1   
    37    12    49 1   
    38    13    14 1   
    39    14    15 1   
    40    14    18 2   
    41    15    16 1   
    42    16    17 2   
    43    17    18 1   
    44    17    19 1   
    45    19    47 1   
    46    19    48 1   
    47    20    21 1   
    48    20    23 2   
    49    21    22 1   
    50    30    49 1   
    51    31    49 1   
    52    32    49 1   
@<TRIPOS>SUBSTRUCTURE
     1 JBV         1 TEMP              0 ****  ****    0 ROOT
