@<TRIPOS>MOLECULE
JBV
   49    52     1     0     0
SMALL
No Charge or Current Charge


@<TRIPOS>ATOM
      1 C10         88.5150    -9.4230    15.4490 c3         1 JBV      -0.141400
      2 C13         93.1540   -11.3050    11.6290 c3         1 JBV      -0.109700
      3 C17         93.5690   -12.8370     8.4630 cc         1 JBV       0.804900
      4 C20         95.8880   -10.7780    10.0600 c3         1 JBV       0.075900
      5 C21         93.8610   -13.8280     6.2720 c5         1 JBV       0.247800
      6 C22         93.1060   -15.0210     5.6330 c5         1 JBV      -0.149700
      7 C23         92.7820   -15.8600     6.9050 c5         1 JBV      -0.092400
      8 C24         92.2300   -14.7800     7.8760 c5         1 JBV       0.245800
      9 C25         93.9110   -15.7700     4.5500 c3         1 JBV       0.183300
     10 N1          90.1690    -8.1280    16.6550 nc         1 JBV      -0.648000
     11 C2          91.4440    -7.5670    16.7550 cc         1 JBV       0.284900
     12 C3          92.4520    -7.6700    15.7930 cd         1 JBV      -0.089300
     13 C4          89.8880    -8.8190    15.5520 cd         1 JBV       0.404300
     14 C5          90.8700    -8.9620    14.5320 cd         1 JBV      -0.121000
     15 N6          92.0940    -8.4020    14.6650 na         1 JBV       0.310400
     16 N7          92.9130    -8.6350    13.6060 nd         1 JBV      -0.593100
     17 C8          92.0770    -9.3550    12.8680 cc         1 JBV       0.523300
     18 N9          90.8210    -9.5910    13.3760 nc         1 JBV      -0.377300
     19 C12         92.4640    -9.9220    11.5310 c3         1 JBV      -0.078700
     20 C14         93.5600   -11.8530    10.2870 cd         1 JBV       0.451800
     21 N15         94.7530   -11.6060     9.6160 na         1 JBV      -0.060700
     22 N16         94.7460   -12.2480     8.4070 nd         1 JBV      -0.614800
     23 N18         92.7920   -12.6240     9.5500 nc         1 JBV      -0.747000
     24 N19         93.0020   -13.5770     7.4540 nh         1 JBV      -0.797300
     25 F26         94.1980   -14.9560     3.5080 f          1 JBV      -0.123500
     26 F27         93.2060   -16.8130     4.0550 f          1 JBV      -0.123500
     27 H30         87.9010    -9.2040    16.3310 hc         1 JBV       0.065367
     28 H31         87.9890    -9.0350    14.5690 hc         1 JBV       0.065367
     29 H29         88.5800   -10.5120    15.3480 hc         1 JBV       0.065367
     30 H33         94.6090    -7.8240    15.8870 hc         1 JBV       0.064033
     31 H32         94.0200    -6.3430    15.1110 hc         1 JBV       0.064033
     32 H34         93.9380    -6.5140    16.8700 hc         1 JBV       0.064033
     33 H37         94.0350   -11.2250    12.2780 hc         1 JBV       0.076700
     34 H38         92.4750   -12.0110    12.1230 hc         1 JBV       0.076700
     35 H39         95.5400    -9.7600    10.2730 h1         1 JBV       0.056367
     36 H40         96.3240   -11.2100    10.9690 h1         1 JBV       0.056367
     37 H41         96.6550   -10.7390     9.2770 h1         1 JBV       0.056367
     38 H43         93.9120   -12.9620     5.5970 h1         1 JBV       0.054700
     39 H42         94.8850   -14.1130     6.5550 h1         1 JBV       0.054700
     40 H44         92.1820   -14.6700     5.1580 hc         1 JBV       0.089700
     41 H46         92.0530   -16.6570     6.7180 hc         1 JBV       0.058700
     42 H45         93.6830   -16.3310     7.3150 hc         1 JBV       0.058700
     43 H47         92.3920   -15.0770     8.9220 h1         1 JBV       0.055200
     44 H48         91.1530   -14.6220     7.7260 h1         1 JBV       0.055200
     45 H49         94.8490   -16.1470     4.9730 h2         1 JBV       0.058700
     46 H28         91.6040    -7.0210    17.6750 h4         1 JBV       0.039100
     47 H36         91.5710   -10.0090    10.8990 hc         1 JBV       0.071200
     48 H35         93.1320    -9.2170    11.0220 hc         1 JBV       0.071200
     49 C11         93.8270    -7.0550    15.9220 c3         1 JBV      -0.041800
@<TRIPOS>BOND
     1     1    13 1   
     2     1    27 1   
     3     1    28 1   
     4     1    29 1   
     5     2    19 1   
     6     2    20 1   
     7     2    33 1   
     8     2    34 1   
     9     3    22 2   
    10     3    23 1   
    11     3    24 1   
    12     4    21 1   
    13     4    35 1   
    14     4    36 1   
    15     4    37 1   
    16     5     6 1   
    17     5    24 1   
    18     5    38 1   
    19     5    39 1   
    20     6     7 1   
    21     6     9 1   
    22     6    40 1   
    23     7     8 1   
    24     7    41 1   
    25     7    42 1   
    26     8    24 1   
    27     8    43 1   
    28     8    44 1   
    29     9    25 1   
    30     9    26 1   
    31     9    45 1   
    32    10    11 1   
    33    10    13 2   
    34    11    12 2   
    35    11    46 1   
    36    12    15 1   
    37    12    49 1   
    38    13    14 1   
    39    14    15 1   
    40    14    18 2   
    41    15    16 1   
    42    16    17 2   
    43    17    18 1   
    44    17    19 1   
    45    19    47 1   
    46    19    48 1   
    47    20    21 1   
    48    20    23 2   
    49    21    22 1   
    50    30    49 1   
    51    31    49 1   
    52    32    49 1   
@<TRIPOS>SUBSTRUCTURE
     1 JBV         1 TEMP              0 ****  ****    0 ROOT
