@<TRIPOS>MOLECULE
JBW
   37    40     1     0     0
SMALL
abcg2


@<TRIPOS>ATOM
      1 O            4.6830    -1.2470    -0.7370 o          1 JBW      -0.574100
      2 C13          3.8390    -0.4240    -0.4240 c          1 JBW       0.639700
      3 N3           4.1340     0.8120     0.0190 ns         1 JBW      -0.480900
      4 C14          5.4830     1.2600     0.1460 cx         1 JBW       0.039700
      5 C16          5.8050     2.1500     1.3020 cx         1 JBW      -0.128900
      6 C15          6.3090     0.7410     1.2780 cx         1 JBW      -0.128900
      7 C12          2.3990    -0.7640    -0.5150 cc         1 JBW      -0.281600
      8 C11          1.8880    -1.7960    -1.2490 cd         1 JBW      -0.065000
      9 C10          0.4790    -1.8820    -1.1780 cd         1 JBW      -0.128000
     10 S            1.1590     0.0940     0.3160 ss         1 JBW       0.232000
     11 C9          -0.0510    -0.9230    -0.3700 cc         1 JBW      -0.123200
     12 N2          -1.3920    -0.7350    -0.0420 na         1 JBW      -0.073400
     13 C1          -2.1730    -1.5680     0.7260 cc         1 JBW       0.454800
     14 C           -1.6520    -2.8340     1.2890 c3         1 JBW      -0.117400
     15 C3          -2.1780     0.3420    -0.3960 ca         1 JBW      -0.078200
     16 C4          -1.9320     1.4760    -1.1520 ca         1 JBW      -0.084000
     17 C5          -2.9860     2.3650    -1.3090 ca         1 JBW      -0.105000
     18 C6          -4.2350     2.1280    -0.7350 ca         1 JBW      -0.085000
     19 C7          -4.4660     0.9810     0.0200 ca         1 JBW       0.037000
     20 C2          -3.4180     0.0730     0.1920 ca         1 JBW       0.107400
     21 N           -3.3830    -1.1110     0.8750 nd         1 JBW      -0.563100
     22 C8          -5.7380     0.7260     0.6050 cg         1 JBW       0.337000
     23 N1          -6.7690     0.5190     1.0770 n1         1 JBW      -0.445000
     24 H3           3.4100     1.5120     0.0660 hn         1 JBW       0.318500
     25 H14          5.9940     1.4590    -0.7900 h1         1 JBW       0.087700
     26 H161         6.5040     2.9580     1.1320 hc         1 JBW       0.079450
     27 H162         5.0040     2.3860     1.9920 hc         1 JBW       0.079450
     28 H151         5.8450     0.0300     1.9500 hc         1 JBW       0.079450
     29 H152         7.3610     0.5670     1.0920 hc         1 JBW       0.079450
     30 H11          2.5030    -2.4580    -1.8400 ha         1 JBW       0.161000
     31 H10         -0.1190    -2.6170    -1.6980 ha         1 JBW       0.152000
     32 HC1         -0.6810    -2.6910     1.7640 hc         1 JBW       0.066367
     33 HC2         -2.3510    -3.2160     2.0280 hc         1 JBW       0.066367
     34 HC3         -1.5300    -3.5890     0.5110 hc         1 JBW       0.066367
     35 H4          -0.9680     1.6680    -1.6050 ha         1 JBW       0.127000
     36 H5          -2.8380     3.2630    -1.8920 ha         1 JBW       0.122000
     37 H6          -5.0340     2.8410    -0.8810 ha         1 JBW       0.128000
@<TRIPOS>BOND
     1     1     2 2   
     2     2     3 1   
     3     2     7 1   
     4     3     4 1   
     5     3    24 1   
     6     4     5 1   
     7     4     6 1   
     8     4    25 1   
     9     5     6 1   
    10     5    26 1   
    11     5    27 1   
    12     6    28 1   
    13     6    29 1   
    14     7     8 2   
    15     7    10 1   
    16     8     9 1   
    17     8    30 1   
    18     9    11 2   
    19     9    31 1   
    20    10    11 1   
    21    11    12 1   
    22    12    13 1   
    23    12    15 1   
    24    13    14 1   
    25    13    21 2   
    26    14    32 1   
    27    14    33 1   
    28    14    34 1   
    29    15    16 ar  
    30    15    20 ar  
    31    16    17 ar  
    32    16    35 1   
    33    17    18 ar  
    34    17    36 1   
    35    18    19 ar  
    36    18    37 1   
    37    19    20 ar  
    38    19    22 1   
    39    20    21 1   
    40    22    23 3   
@<TRIPOS>SUBSTRUCTURE
     1 JBW         1 TEMP              0 ****  ****    0 ROOT
