@<TRIPOS>MOLECULE
JBW
   37    40     1     0     0
SMALL
No Charge or Current Charge


@<TRIPOS>ATOM
      1 O            4.7080    -1.3070    -0.8520 o          1 JBW      -0.574100
      2 C13          3.8110    -0.5530    -0.5040 c          1 JBW       0.639700
      3 N3           4.0610     0.7030     0.0030 ns         1 JBW      -0.480900
      4 C14          5.3730     1.2610     0.1830 cx         1 JBW       0.039700
      5 C16          5.4940     2.5110     1.0190 cx         1 JBW      -0.128900
      6 C15          5.9810     1.1900     1.5620 cx         1 JBW      -0.128900
      7 C12          2.3780    -0.8950    -0.5850 cc         1 JBW      -0.281600
      8 C11          1.9020    -2.0990    -1.0720 cd         1 JBW      -0.065000
      9 C10          0.4830    -2.2090    -1.0300 cd         1 JBW      -0.128000
     10 S            1.0680     0.1880    -0.0970 ss         1 JBW       0.232000
     11 C9          -0.0720    -1.0950    -0.4580 cc         1 JBW      -0.123200
     12 N2          -1.4620    -0.9590    -0.4850 na         1 JBW      -0.073400
     13 C1          -2.2040    -1.7890     0.3770 cc         1 JBW       0.454800
     14 C           -1.8140    -3.1570     0.8680 c3         1 JBW      -0.117400
     15 C3          -2.0980     0.2440    -0.5510 ca         1 JBW      -0.078200
     16 C4          -1.7870     1.4070    -1.2710 ca         1 JBW      -0.084000
     17 C5          -2.6810     2.4920    -1.1760 ca         1 JBW      -0.105000
     18 C6          -3.8520     2.3840    -0.3900 ca         1 JBW      -0.085000
     19 C7          -4.1470     1.1850     0.3030 ca         1 JBW       0.037000
     20 C2          -3.2390     0.1140     0.1970 ca         1 JBW       0.107400
     21 N           -3.3250    -1.1560     0.7810 nd         1 JBW      -0.563100
     22 C8          -5.3430     1.0720     1.0910 cg         1 JBW       0.337000
     23 N1          -6.3210     0.9960     1.7280 n1         1 JBW      -0.445000
     24 H3           3.2520     1.2530     0.2580 hn         1 JBW       0.318500
     25 H14          6.0340     1.1530    -0.6790 h1         1 JBW       0.087700
     26 H161         6.2400     3.2440     0.7230 hc         1 JBW       0.079450
     27 H162         4.5880     2.9330     1.4490 hc         1 JBW       0.079450
     28 H151         5.4000     0.7200     2.3530 hc         1 JBW       0.079450
     29 H152         7.0540     1.0340     1.6320 hc         1 JBW       0.079450
     30 H11          2.5460    -2.8850    -1.4600 ha         1 JBW       0.161000
     31 H10         -0.0700    -3.0620    -1.4110 ha         1 JBW       0.152000
     32 HC1         -0.8250    -3.1400     1.3400 hc         1 JBW       0.066367
     33 HC2         -2.5300    -3.5230     1.6130 hc         1 JBW       0.066367
     34 HC3         -1.7960    -3.8760     0.0420 hc         1 JBW       0.066367
     35 H4          -0.8970     1.4710    -1.8930 ha         1 JBW       0.127000
     36 H5          -2.4730     3.4140    -1.7150 ha         1 JBW       0.122000
     37 H6          -4.5350     3.2300    -0.3270 ha         1 JBW       0.128000
@<TRIPOS>BOND
     1     1     2 2   
     2     2     3 1   
     3     2     7 1   
     4     3     4 1   
     5     3    24 1   
     6     4     5 1   
     7     4     6 1   
     8     4    25 1   
     9     5     6 1   
    10     5    26 1   
    11     5    27 1   
    12     6    28 1   
    13     6    29 1   
    14     7     8 2   
    15     7    10 1   
    16     8     9 1   
    17     8    30 1   
    18     9    11 2   
    19     9    31 1   
    20    10    11 1   
    21    11    12 1   
    22    12    13 1   
    23    12    15 1   
    24    13    14 1   
    25    13    21 2   
    26    14    32 1   
    27    14    33 1   
    28    14    34 1   
    29    15    16 ar  
    30    15    20 ar  
    31    16    17 ar  
    32    16    35 1   
    33    17    18 ar  
    34    17    36 1   
    35    18    19 ar  
    36    18    37 1   
    37    19    20 ar  
    38    19    22 1   
    39    20    21 1   
    40    22    23 3   
@<TRIPOS>SUBSTRUCTURE
     1 JBW         1 TEMP              0 ****  ****    0 ROOT
