@<TRIPOS>MOLECULE
JBY
   35    36     1     0     0
SMALL
No Charge or Current Charge


@<TRIPOS>ATOM
      1 C1           1.1760    -1.2500    -0.2410 cc         1 JBY       0.496900
      2 C2           1.2970     1.0030    -0.1460 c          1 JBY       0.689700
      3 N2          -0.1250    -0.9280    -0.1660 nd         1 JBY      -0.654300
      4 N3           2.0340    -0.1570    -0.2250 n          1 JBY      -0.374300
      5 O2           1.6970     2.1630    -0.1250 o          1 JBY      -0.578500
      6 C            4.2040     0.8630     0.7550 c          1 JBY       0.928600
      7 CA3          3.5330    -0.1920    -0.1990 c3         1 JBY      -0.035300
      8 CB3          4.1070    -0.1920    -1.6380 c3         1 JBY      -0.071100
      9 CA1          1.6610    -2.7040    -0.3140 c3         1 JBY       0.118500
     10 N            0.8110    -3.6380    -1.1230 n8         1 JBY      -0.877800
     11 CA2         -0.0780     0.4640    -0.1120 cd         1 JBY       0.031400
     12 CB2         -1.2160     1.2450    -0.0340 ce         1 JBY      -0.059200
     13 CG2         -2.6570     0.8740     0.1120 ca         1 JBY      -0.070800
     14 CD2         -3.0650    -0.3070     0.7690 ca         1 JBY      -0.072500
     15 CE2         -4.4320    -0.6140     0.9010 ca         1 JBY      -0.206500
     16 CZ          -5.4000     0.2590     0.3840 ca         1 JBY       0.126100
     17 O3          -6.7230    -0.0330     0.5100 oh         1 JBY      -0.505100
     18 CE1         -5.0070     1.4400    -0.2590 ca         1 JBY      -0.206500
     19 CD1         -3.6410     1.7490    -0.3920 ca         1 JBY      -0.072500
     20 H4           3.8170    -1.1560     0.2400 h1         1 JBY       0.026700
     21 H5           3.6710    -1.0060    -2.2280 hc         1 JBY       0.031033
     22 H6           3.8850     0.7540    -2.1460 hc         1 JBY       0.031033
     23 H7           5.1940    -0.3320    -1.6220 hc         1 JBY       0.031033
     24 H8           2.6750    -2.7320    -0.7340 h1         1 JBY       0.058200
     25 H9           1.7180    -3.0900     0.7130 h1         1 JBY       0.058200
     26 H1           1.1360    -4.6020    -0.9880 hn         1 JBY       0.340300
     27 H2          -0.1420    -3.6270    -0.7450 hn         1 JBY       0.340300
     28 H13         -1.0310     2.3180    -0.0650 ha         1 JBY       0.134000
     29 H14         -2.3270    -0.9850     1.1910 ha         1 JBY       0.151000
     30 H16         -4.7290    -1.5280     1.4090 ha         1 JBY       0.128000
     31 H17         -5.7580     2.1180    -0.6550 ha         1 JBY       0.128000
     32 H18         -3.3460     2.6700    -0.8930 ha         1 JBY       0.151000
     33 H3          -6.8070    -0.8870     0.9820 ho         1 JBY       0.419000
     34 O            3.9540     0.7870     1.9530 o          1 JBY      -0.817300
     35 OXT          4.9980     1.6820     0.3010 o          1 JBY      -0.817300
@<TRIPOS>BOND
     1     1     3 2   
     2     1     4 1   
     3     1     9 1   
     4     2     4 1   
     5     2     5 2   
     6     2    11 1   
     7     3    11 1   
     8     4     7 1   
     9     6     7 1   
    10     6    34 1   
    11     6    35 1   
    12     7     8 1   
    13     7    20 1   
    14     8    21 1   
    15     8    22 1   
    16     8    23 1   
    17     9    10 1   
    18     9    24 1   
    19     9    25 1   
    20    10    26 1   
    21    10    27 1   
    22    11    12 2   
    23    12    13 1   
    24    12    28 1   
    25    13    14 ar  
    26    13    19 ar  
    27    14    15 ar  
    28    14    29 1   
    29    15    16 ar  
    30    15    30 1   
    31    16    17 1   
    32    16    18 ar  
    33    17    33 1   
    34    18    19 ar  
    35    18    31 1   
    36    19    32 1   
@<TRIPOS>SUBSTRUCTURE
     1 JBY         1 TEMP              0 ****  ****    0 ROOT
