@<TRIPOS>MOLECULE
JBY
   35    36     1     0     0
SMALL
bcc


@<TRIPOS>ATOM
      1 C1           1.1870    -1.3220    -0.2550 cc         1 JBY       0.496900
      2 C2           1.2430     0.8790    -0.5450 c          1 JBY       0.689700
      3 N2          -0.0580    -1.0110    -0.1260 nd         1 JBY      -0.654300
      4 N3           2.0130    -0.2620    -0.5570 n          1 JBY      -0.374300
      5 O2           1.6310     2.0200    -0.7000 o          1 JBY      -0.578500
      6 C            3.9640     0.3250     0.8320 c          1 JBY       0.928600
      7 CA3          3.4640    -0.2620    -0.5180 c3         1 JBY      -0.035300
      8 CB3          4.0800     0.3790    -1.7540 c3         1 JBY      -0.071100
      9 CA1          1.7240    -2.6980    -0.0620 c3         1 JBY       0.118500
     10 N            0.6590    -3.6630     0.0860 n8         1 JBY      -0.877800
     11 CA2         -0.1260     0.3630    -0.3080 cd         1 JBY       0.031400
     12 CB2         -1.2140     1.1570    -0.2800 ce         1 JBY      -0.059200
     13 CG2         -2.6010     0.8070    -0.0600 ca         1 JBY      -0.070800
     14 CD2         -3.0610    -0.5020     0.1440 ca         1 JBY      -0.072500
     15 CE2         -4.4010    -0.7610     0.3580 ca         1 JBY      -0.206500
     16 CZ          -5.3270     0.2830     0.3770 ca         1 JBY       0.126100
     17 O3          -6.6380     0.0830     0.5880 oh         1 JBY      -0.505100
     18 CE1         -4.8920     1.5910     0.1710 ca         1 JBY      -0.206500
     19 CD1         -3.5510     1.8390    -0.0440 ca         1 JBY      -0.072500
     20 H4           3.7720    -1.3120    -0.5220 h1         1 JBY       0.026700
     21 H5           3.6690    -0.0640    -2.6620 hc         1 JBY       0.031033
     22 H6           3.9130     1.4530    -1.7910 hc         1 JBY       0.031033
     23 H7           5.1530     0.2060    -1.7560 hc         1 JBY       0.031033
     24 H8           2.3310    -2.9660    -0.9320 h1         1 JBY       0.058200
     25 H9           2.4240    -2.6530     0.7870 h1         1 JBY       0.058200
     26 H1           1.0700    -4.5730     0.2480 hn         1 JBY       0.340300
     27 H2           0.1150    -3.4460     0.9120 hn         1 JBY       0.340300
     28 H13         -1.0200     2.2130    -0.4410 ha         1 JBY       0.134000
     29 H14         -2.3570    -1.3220     0.1350 ha         1 JBY       0.151000
     30 H16         -4.7300    -1.7820     0.5150 ha         1 JBY       0.128000
     31 H17         -5.6060     2.4050     0.1820 ha         1 JBY       0.128000
     32 H18         -3.2260     2.8600    -0.2020 ha         1 JBY       0.151000
     33 H3          -6.8210    -0.8530     0.7280 ho         1 JBY       0.419000
     34 O            3.1480     0.3250     1.7680 o          1 JBY      -0.817300
     35 OXT          5.1520     0.6910     0.8530 o          1 JBY      -0.817300
@<TRIPOS>BOND
     1     1     3 2   
     2     1     4 1   
     3     1     9 1   
     4     2     4 1   
     5     2     5 2   
     6     2    11 1   
     7     3    11 1   
     8     4     7 1   
     9     6     7 1   
    10     6    34 1   
    11     6    35 1   
    12     7     8 1   
    13     7    20 1   
    14     8    21 1   
    15     8    22 1   
    16     8    23 1   
    17     9    10 1   
    18     9    24 1   
    19     9    25 1   
    20    10    26 1   
    21    10    27 1   
    22    11    12 2   
    23    12    13 1   
    24    12    28 1   
    25    13    14 ar  
    26    13    19 ar  
    27    14    15 ar  
    28    14    29 1   
    29    15    16 ar  
    30    15    30 1   
    31    16    17 1   
    32    16    18 ar  
    33    17    33 1   
    34    18    19 ar  
    35    18    31 1   
    36    19    32 1   
@<TRIPOS>SUBSTRUCTURE
     1 JBY         1 TEMP              0 ****  ****    0 ROOT
