@<TRIPOS>MOLECULE
JBZ
   20    21     1     0     0
SMALL
No Charge or Current Charge


@<TRIPOS>ATOM
      1 C10         -1.9690    -0.1030    -0.0040 cc         1 JBZ       0.370200
      2 C01          5.2170    -0.1740    -0.0100 c3         1 JBZ       0.157900
      3 O02          4.0420     0.6570    -0.0100 os         1 JBZ      -0.354100
      4 C03          2.7670     0.1270    -0.0080 ca         1 JBZ       0.107100
      5 C04          2.5230    -1.2690    -0.0060 ca         1 JBZ      -0.210000
      6 C05          1.1980    -1.7540    -0.0040 ca         1 JBZ      -0.038000
      7 C06          0.1250    -0.8470    -0.0050 ca         1 JBZ       0.071400
      8 C07          0.3740     0.5090    -0.0070 ca         1 JBZ      -0.188000
      9 C08          1.6810     1.0220    -0.0080 ca         1 JBZ      -0.113000
     10 S09         -1.1000     1.4590    -0.0060 ss         1 JBZ       0.022800
     11 N11         -1.2110    -1.2280    -0.0030 nd         1 JBZ      -0.541100
     12 C12         -3.4880    -0.0850    -0.0020 c          1 JBZ       0.646700
     13 O13         -4.0790     0.9920    -0.0030 o          1 JBZ      -0.680000
     14 O14         -4.1080    -1.1470    -0.0000 o          1 JBZ      -0.680000
     15 H1           6.1210     0.4470    -0.0120 h1         1 JBZ       0.029700
     16 H2           5.2430    -0.8120     0.8830 h1         1 JBZ       0.029700
     17 H3           5.2410    -0.8140    -0.9020 h1         1 JBZ       0.029700
     18 H4           3.3380    -1.9860    -0.0060 ha         1 JBZ       0.099000
     19 H5           1.0060    -2.8250    -0.0030 ha         1 JBZ       0.118000
     20 H6           1.8550     2.0960    -0.0100 ha         1 JBZ       0.121000
@<TRIPOS>BOND
     1     1    10 1   
     2     1    11 2   
     3     1    12 1   
     4     2     3 1   
     5     2    15 1   
     6     2    16 1   
     7     2    17 1   
     8     3     4 1   
     9     4     5 ar  
    10     4     9 ar  
    11     5     6 ar  
    12     5    18 1   
    13     6     7 ar  
    14     6    19 1   
    15     7     8 ar  
    16     7    11 1   
    17     8     9 ar  
    18     8    10 1   
    19     9    20 1   
    20    12    13 1   
    21    12    14 1   
@<TRIPOS>SUBSTRUCTURE
     1 JBZ         1 TEMP              0 ****  ****    0 ROOT
