@<TRIPOS>MOLECULE
JBZ
   20    21     1     0     0
SMALL
abcg2


@<TRIPOS>ATOM
      1 C10         -1.9320    -0.1520    -0.0020 cc         1 JBZ       0.370200
      2 C01          5.1140    -0.1910    -0.0120 c3         1 JBZ       0.157900
      3 O02          3.9910     0.6690    -0.0140 os         1 JBZ      -0.354100
      4 C03          2.7580     0.1310    -0.0090 ca         1 JBZ       0.107100
      5 C04          2.5120    -1.2530    -0.0050 ca         1 JBZ      -0.210000
      6 C05          1.2190    -1.7390    -0.0010 ca         1 JBZ      -0.038000
      7 C06          0.1460    -0.8520    -0.0010 ca         1 JBZ       0.071400
      8 C07          0.4070     0.5320    -0.0040 ca         1 JBZ      -0.188000
      9 C08          1.6990     1.0340    -0.0080 ca         1 JBZ      -0.113000
     10 S09         -1.0970     1.3870    -0.0040 ss         1 JBZ       0.022800
     11 N11         -1.1850    -1.1950     0.0010 nd         1 JBZ      -0.541100
     12 C12         -3.4490    -0.1030    -0.0050 c          1 JBZ       0.646700
     13 O13         -3.9080     1.0530     0.0030 o          1 JBZ      -0.680000
     14 O14         -4.0410    -1.1890    -0.0160 o          1 JBZ      -0.680000
     15 H1           5.9920     0.4510    -0.0110 h1         1 JBZ       0.029700
     16 H2           5.1430    -0.8250     0.8770 h1         1 JBZ       0.029700
     17 H3           5.1460    -0.8250    -0.9020 h1         1 JBZ       0.029700
     18 H4           3.3280    -1.9610    -0.0050 ha         1 JBZ       0.099000
     19 H5           1.0400    -2.8060     0.0030 ha         1 JBZ       0.118000
     20 H6           1.8920     2.0990    -0.0110 ha         1 JBZ       0.121000
@<TRIPOS>BOND
     1     1    10 1   
     2     1    11 2   
     3     1    12 1   
     4     2     3 1   
     5     2    15 1   
     6     2    16 1   
     7     2    17 1   
     8     3     4 1   
     9     4     5 ar  
    10     4     9 ar  
    11     5     6 ar  
    12     5    18 1   
    13     6     7 ar  
    14     6    19 1   
    15     7     8 ar  
    16     7    11 1   
    17     8     9 ar  
    18     8    10 1   
    19     9    20 1   
    20    12    13 1   
    21    12    14 1   
@<TRIPOS>SUBSTRUCTURE
     1 JBZ         1 TEMP              0 ****  ****    0 ROOT
