@<TRIPOS>MOLECULE
JC1
   77    79     1     0     0
SMALL
No Charge or Current Charge


@<TRIPOS>ATOM
      1 C31          7.5730    -6.8490    26.9540 c3         1 JC1      -0.089100
      2 C30          8.5630    -6.4260    28.0560 c3         1 JC1      -0.076400
      3 C29          9.7460    -5.5930    27.5180 c3         1 JC1      -0.078400
      4 C28         10.7450    -5.1770    28.6270 c3         1 JC1      -0.072400
      5 C22         11.8680    -4.1780    28.1870 c3         1 JC1      -0.052700
      6 C23         12.8000    -3.8120    29.3920 c3         1 JC1      -0.069400
      7 C24         12.1150    -3.1980    30.6390 c3         1 JC1       0.160600
      8 O03         11.4520    -1.9730    30.3090 oh         1 JC1      -0.672000
      9 C20         12.6800    -4.6380    26.9150 c3         1 JC1      -0.048700
     10 C21         13.3870    -6.0060    27.1610 c3         1 JC1      -0.089100
     11 C17         13.6840    -3.5930    26.2860 c5         1 JC1      -0.052700
     12 C16         14.3200    -4.1270    24.9400 c5         1 JC1      -0.077400
     13 C15         14.6050    -2.8800    24.0490 c5         1 JC1      -0.071400
     14 C14         14.4550    -1.7180    25.0630 c5         1 JC1      -0.037500
     15 C13         13.1780    -2.1480    25.8670 c5         1 JC1      -0.037000
     16 C18         11.8550    -2.2050    25.0240 c3         1 JC1      -0.079100
     17 C12         12.9890    -1.1110    27.0270 c6         1 JC1      -0.067400
     18 C11         12.7920     0.3370    26.5000 c6         1 JC1      -0.070400
     19 C09         13.9180     0.7850    25.5350 c6         1 JC1      -0.043200
     20 C08         14.2690    -0.2900    24.5010 c2         1 JC1      -0.076400
     21 C07         14.5130    -0.0660    23.1800 ce         1 JC1      -0.194000
     22 C06         14.4600     1.2420    22.5010 ce         1 JC1      -0.151000
     23 C05         14.4300     1.4500    21.1500 cf         1 JC1      -0.077200
     24 C04         14.4580     2.8910    20.5960 c6         1 JC1      -0.028200
     25 C03         15.4700     3.0690    19.4380 c6         1 JC1       0.176300
     26 O02         16.8160     3.0180    19.9280 oh         1 JC1      -0.661000
     27 C02         15.2520     1.9910    18.3530 c6         1 JC1      -0.140400
     28 C01         15.3410     0.5590    18.9320 c6         1 JC1       0.210500
     29 O01         15.1220    -0.3770    17.8690 oh         1 JC1      -0.662000
     30 C10         14.3690     0.3930    20.1310 cf         1 JC1      -0.086200
     31 C19         13.5000    -0.6460    20.2260 c2         1 JC1      -0.284000
     32 H31          6.7520    -7.4360    27.3830 hc         1 JC1       0.032033
     33 H31A         7.1440    -5.9700    26.4590 hc         1 JC1       0.032033
     34 H31B         8.0750    -7.4630    26.1970 hc         1 JC1       0.032033
     35 H30          8.0230    -5.8450    28.8150 hc         1 JC1       0.035200
     36 H30A         8.9480    -7.3250    28.5540 hc         1 JC1       0.035200
     37 H29         10.2650    -6.1860    26.7560 hc         1 JC1       0.039700
     38 H29A         9.3590    -4.6930    27.0230 hc         1 JC1       0.039700
     39 H28         10.1570    -4.7060    29.4220 hc         1 JC1       0.035700
     40 H28A        11.1900    -6.0740    29.0730 hc         1 JC1       0.035700
     41 H22         11.3220    -3.2780    27.8990 hc         1 JC1       0.066700
     42 H23         13.3300    -4.7140    29.7200 hc         1 JC1       0.047200
     43 H23A        13.5730    -3.1110    29.0650 hc         1 JC1       0.047200
     44 H24         11.4050    -3.9160    31.0700 h1         1 JC1       0.019200
     45 H24A        12.8840    -3.0110    31.4000 h1         1 JC1       0.019200
     46 HO03        11.0540    -1.6310    31.1390 ho         1 JC1       0.438000
     47 H20         11.9400    -4.8240    26.1300 hc         1 JC1       0.047700
     48 H21         13.8040    -6.4140    26.2330 hc         1 JC1       0.031367
     49 H21A        14.2100    -5.9030    27.8770 hc         1 JC1       0.031367
     50 H21B        12.6930    -6.7630    27.5410 hc         1 JC1       0.031367
     51 H17         14.4920    -3.4850    27.0200 hc         1 JC1       0.043700
     52 H16         15.2400    -4.6870    25.1400 hc         1 JC1       0.039200
     53 H16A        13.6500    -4.8140    24.4100 hc         1 JC1       0.039200
     54 H15         15.6050    -2.9150    23.6020 hc         1 JC1       0.045200
     55 H15A        13.8850    -2.8210    23.2250 hc         1 JC1       0.045200
     56 H14         15.3350    -1.7040    25.7190 hc         1 JC1       0.051700
     57 H18         10.9800    -2.3410    25.6710 hc         1 JC1       0.034033
     58 H18A        11.6940    -1.2900    24.4440 hc         1 JC1       0.034033
     59 H18B        11.8430    -3.0360    24.3100 hc         1 JC1       0.034033
     60 H12         12.1290    -1.3560    27.6550 hc         1 JC1       0.049700
     61 H12A        13.8670    -1.1330    27.6870 hc         1 JC1       0.049700
     62 H11         11.8210     0.4210    25.9930 hc         1 JC1       0.040200
     63 H11A        12.7410     1.0320    27.3490 hc         1 JC1       0.040200
     64 H09         13.6100     1.7250    25.0620 hc         1 JC1       0.045200
     65 H09A        14.8200     1.0150    26.1180 hc         1 JC1       0.045200
     66 H07         14.8020    -0.8840    22.5250 ha         1 JC1       0.178000
     67 H06         14.4890     2.1250    23.1390 ha         1 JC1       0.169000
     68 H04         13.4510     3.1440    20.2360 hc         1 JC1       0.056200
     69 H04A        14.6840     3.6130    21.3920 hc         1 JC1       0.056200
     70 H03         15.2910     4.0550    18.9840 h1         1 JC1       0.034700
     71 HO02        17.3960     3.2940    19.1860 ho         1 JC1       0.435000
     72 H02         14.2640     2.1390    17.8960 hc         1 JC1       0.049700
     73 H02A        15.9870     2.1220    17.5470 hc         1 JC1       0.049700
     74 H01         16.3590     0.4170    19.3250 h1         1 JC1       0.049700
     75 HO01        15.8120    -0.1970    17.1950 ho         1 JC1       0.441000
     76 H19         12.8100    -0.7290    21.0650 ha         1 JC1       0.174000
     77 H19A        13.4510    -1.4260    19.4670 ha         1 JC1       0.174000
@<TRIPOS>BOND
     1     1     2 1   
     2     1    32 1   
     3     1    33 1   
     4     1    34 1   
     5     2     3 1   
     6     2    35 1   
     7     2    36 1   
     8     3     4 1   
     9     3    37 1   
    10     3    38 1   
    11     4     5 1   
    12     4    39 1   
    13     4    40 1   
    14     5     6 1   
    15     5     9 1   
    16     5    41 1   
    17     6     7 1   
    18     6    42 1   
    19     6    43 1   
    20     7     8 1   
    21     7    44 1   
    22     7    45 1   
    23     8    46 1   
    24     9    10 1   
    25     9    11 1   
    26     9    47 1   
    27    10    48 1   
    28    10    49 1   
    29    10    50 1   
    30    11    12 1   
    31    11    15 1   
    32    11    51 1   
    33    12    13 1   
    34    12    52 1   
    35    12    53 1   
    36    13    14 1   
    37    13    54 1   
    38    13    55 1   
    39    14    15 1   
    40    14    20 1   
    41    14    56 1   
    42    15    16 1   
    43    15    17 1   
    44    16    57 1   
    45    16    58 1   
    46    16    59 1   
    47    17    18 1   
    48    17    60 1   
    49    17    61 1   
    50    18    19 1   
    51    18    62 1   
    52    18    63 1   
    53    19    20 1   
    54    19    64 1   
    55    19    65 1   
    56    20    21 2   
    57    21    22 1   
    58    21    66 1   
    59    22    23 2   
    60    22    67 1   
    61    23    24 1   
    62    23    30 1   
    63    24    25 1   
    64    24    68 1   
    65    24    69 1   
    66    25    26 1   
    67    25    27 1   
    68    25    70 1   
    69    26    71 1   
    70    27    28 1   
    71    27    72 1   
    72    27    73 1   
    73    28    29 1   
    74    28    30 1   
    75    28    74 1   
    76    29    75 1   
    77    30    31 2   
    78    31    76 1   
    79    31    77 1   
@<TRIPOS>SUBSTRUCTURE
     1 JC1         1 TEMP              0 ****  ****    0 ROOT
