@<TRIPOS>MOLECULE
JC1
   77    79     1     0     0
SMALL
abcg2


@<TRIPOS>ATOM
      1 C31          7.5080    -5.5690    26.2520 c3         1 JC1      -0.089100
      2 C30          8.5500    -5.8140    27.3420 c3         1 JC1      -0.076400
      3 C29          9.7710    -4.9070    27.2100 c3         1 JC1      -0.078400
      4 C28         10.8040    -5.1180    28.3160 c3         1 JC1      -0.072400
      5 C22         12.0390    -4.2090    28.1980 c3         1 JC1      -0.052700
      6 C23         12.8000    -4.0820    29.5270 c3         1 JC1      -0.069400
      7 C24         12.0390    -3.4160    30.6590 c3         1 JC1       0.160600
      8 O03         11.6730    -2.0820    30.2770 oh         1 JC1      -0.672000
      9 C20         12.9640    -4.6620    27.0400 c3         1 JC1      -0.048700
     10 C21         13.7420    -5.9380    27.4020 c3         1 JC1      -0.089100
     11 C17         13.9450    -3.5950    26.5150 c5         1 JC1      -0.052700
     12 C16         14.7550    -4.1300    25.2930 c5         1 JC1      -0.077400
     13 C15         15.0060    -2.9380    24.3440 c5         1 JC1      -0.071400
     14 C14         14.6060    -1.7260    25.1750 c5         1 JC1      -0.037500
     15 C13         13.3940    -2.2250    26.0240 c5         1 JC1      -0.037000
     16 C18         12.1450    -2.4150    25.1520 c3         1 JC1      -0.079100
     17 C12         13.1470    -1.1690    27.1110 c6         1 JC1      -0.067400
     18 C11         12.9180     0.2270    26.5200 c6         1 JC1      -0.070400
     19 C09         14.0360     0.6610    25.5550 c6         1 JC1      -0.043200
     20 C08         14.3370    -0.4010    24.5290 c2         1 JC1      -0.076400
     21 C07         14.3340    -0.2270    23.1960 ce         1 JC1      -0.194000
     22 C06         14.0400     1.0000    22.4860 ce         1 JC1      -0.151000
     23 C05         13.9760     1.1600    21.1490 cf         1 JC1      -0.077200
     24 C04         13.7040     2.5130    20.5380 c6         1 JC1      -0.028200
     25 C03         14.7330     2.8900    19.4750 c6         1 JC1       0.176300
     26 O02         15.9670     3.1710    20.1540 oh         1 JC1      -0.661000
     27 C02         14.8960     1.7650    18.4550 c6         1 JC1      -0.140400
     28 C01         15.2240     0.4210    19.1140 c6         1 JC1       0.210500
     29 O01         15.3110    -0.6200    18.1430 oh         1 JC1      -0.662000
     30 C10         14.1920     0.0770    20.1630 cf         1 JC1      -0.086200
     31 C19         13.5180    -1.0730    20.1630 c2         1 JC1      -0.284000
     32 H31          6.6470    -6.2310    26.3640 hc         1 JC1       0.032033
     33 H31A         7.1450    -4.5380    26.2850 hc         1 JC1       0.032033
     34 H31B         7.9340    -5.7380    25.2600 hc         1 JC1       0.032033
     35 H30          8.0920    -5.6630    28.3260 hc         1 JC1       0.035200
     36 H30A         8.8740    -6.8590    27.3120 hc         1 JC1       0.035200
     37 H29         10.2280    -5.0690    26.2290 hc         1 JC1       0.039700
     38 H29A         9.4460    -3.8600    27.2250 hc         1 JC1       0.039700
     39 H28         10.3090    -4.9380    29.2740 hc         1 JC1       0.035700
     40 H28A        11.1110    -6.1690    28.3330 hc         1 JC1       0.035700
     41 H22         11.6630    -3.2190    27.9490 hc         1 JC1       0.066700
     42 H23         13.0990    -5.0720    29.8830 hc         1 JC1       0.047200
     43 H23A        13.7230    -3.5190    29.3610 hc         1 JC1       0.047200
     44 H24         11.1400    -3.9860    30.9150 h1         1 JC1       0.019200
     45 H24A        12.6750    -3.3870    31.5510 h1         1 JC1       0.019200
     46 HO03        11.1740    -1.6890    31.0020 ho         1 JC1       0.438000
     47 H20         12.3100    -4.9160    26.2010 hc         1 JC1       0.047700
     48 H21         14.1760    -6.3990    26.5160 hc         1 JC1       0.031367
     49 H21A        14.5590    -5.7190    28.0930 hc         1 JC1       0.031367
     50 H21B        13.0970    -6.6800    27.8740 hc         1 JC1       0.031367
     51 H17         14.6570    -3.3680    27.3160 hc         1 JC1       0.043700
     52 H16         15.6910    -4.5830    25.6190 hc         1 JC1       0.039200
     53 H16A        14.1920    -4.9130    24.7810 hc         1 JC1       0.039200
     54 H15         16.0410    -2.8800    24.0020 hc         1 JC1       0.045200
     55 H15A        14.3790    -3.0210    23.4550 hc         1 JC1       0.045200
     56 H14         15.4070    -1.5600    25.9100 hc         1 JC1       0.051700
     57 H18         11.2830    -2.6710    25.7690 hc         1 JC1       0.034033
     58 H18A        11.9030    -1.5080    24.5990 hc         1 JC1       0.034033
     59 H18B        12.2760    -3.2160    24.4240 hc         1 JC1       0.034033
     60 H12         12.2970    -1.4300    27.7410 hc         1 JC1       0.049700
     61 H12A        14.0230    -1.1430    27.7680 hc         1 JC1       0.049700
     62 H11         11.9630     0.2500    25.9890 hc         1 JC1       0.040200
     63 H11A        12.8400     0.9580    27.3290 hc         1 JC1       0.040200
     64 H09         13.7790     1.6150    25.0960 hc         1 JC1       0.045200
     65 H09A        14.9490     0.8250    26.1420 hc         1 JC1       0.045200
     66 H07         14.5660    -1.0850    22.5780 ha         1 JC1       0.178000
     67 H06         13.8700     1.8890    23.0840 ha         1 JC1       0.169000
     68 H04         12.7250     2.4980    20.0450 hc         1 JC1       0.056200
     69 H04A        13.6720     3.2840    21.3090 hc         1 JC1       0.056200
     70 H03         14.3940     3.7940    18.9590 h1         1 JC1       0.034700
     71 HO02        16.6280     3.4080    19.4910 ho         1 JC1       0.435000
     72 H02         13.9660     1.6580    17.8900 hc         1 JC1       0.049700
     73 H02A        15.6870     2.0220    17.7440 hc         1 JC1       0.049700
     74 H01         16.1890     0.5160    19.6280 h1         1 JC1       0.049700
     75 HO01        16.0440    -0.4080    17.5520 ho         1 JC1       0.441000
     76 H19         12.7630    -1.2750    20.9120 ha         1 JC1       0.174000
     77 H19A        13.6990    -1.8300    19.4130 ha         1 JC1       0.174000
@<TRIPOS>BOND
     1     1     2 1   
     2     1    32 1   
     3     1    33 1   
     4     1    34 1   
     5     2     3 1   
     6     2    35 1   
     7     2    36 1   
     8     3     4 1   
     9     3    37 1   
    10     3    38 1   
    11     4     5 1   
    12     4    39 1   
    13     4    40 1   
    14     5     6 1   
    15     5     9 1   
    16     5    41 1   
    17     6     7 1   
    18     6    42 1   
    19     6    43 1   
    20     7     8 1   
    21     7    44 1   
    22     7    45 1   
    23     8    46 1   
    24     9    10 1   
    25     9    11 1   
    26     9    47 1   
    27    10    48 1   
    28    10    49 1   
    29    10    50 1   
    30    11    12 1   
    31    11    15 1   
    32    11    51 1   
    33    12    13 1   
    34    12    52 1   
    35    12    53 1   
    36    13    14 1   
    37    13    54 1   
    38    13    55 1   
    39    14    15 1   
    40    14    20 1   
    41    14    56 1   
    42    15    16 1   
    43    15    17 1   
    44    16    57 1   
    45    16    58 1   
    46    16    59 1   
    47    17    18 1   
    48    17    60 1   
    49    17    61 1   
    50    18    19 1   
    51    18    62 1   
    52    18    63 1   
    53    19    20 1   
    54    19    64 1   
    55    19    65 1   
    56    20    21 2   
    57    21    22 1   
    58    21    66 1   
    59    22    23 2   
    60    22    67 1   
    61    23    24 1   
    62    23    30 1   
    63    24    25 1   
    64    24    68 1   
    65    24    69 1   
    66    25    26 1   
    67    25    27 1   
    68    25    70 1   
    69    26    71 1   
    70    27    28 1   
    71    27    72 1   
    72    27    73 1   
    73    28    29 1   
    74    28    30 1   
    75    28    74 1   
    76    29    75 1   
    77    30    31 2   
    78    31    76 1   
    79    31    77 1   
@<TRIPOS>SUBSTRUCTURE
     1 JC1         1 TEMP              0 ****  ****    0 ROOT
