@<TRIPOS>MOLECULE
JC2
   60    60     1     0     0
SMALL
bcc


@<TRIPOS>ATOM
      1 C10          6.5490     0.2170    -0.3690 c          1 JC2       0.930600
      2 C11         -1.3550    -0.2500    -1.3370 c3         1 JC2      -0.087200
      3 C12         -3.4570     0.8220    -0.6760 c          1 JC2       0.742100
      4 C13         -5.5720     1.5510     0.0860 c3         1 JC2       0.206700
      5 C14         -6.9420     0.9670     0.2560 ca         1 JC2      -0.074300
      6 C15         -7.7120     0.6510    -0.8630 ca         1 JC2      -0.104500
      7 C16         -8.9740     0.0950    -0.7150 ca         1 JC2      -0.141000
      8 C19         -7.4580     0.7180     1.5220 ca         1 JC2      -0.104500
      9 O01         -1.0800    -2.3490     0.3330 o          1 JC2      -0.828000
     10 N01          1.1040    -1.0410    -0.5250 n7         1 JC2      -0.892300
     11 C01          2.2460    -0.9990     0.3710 c3         1 JC2       0.151500
     12 C02          2.5410    -2.3460     1.0390 c3         1 JC2      -0.095400
     13 C03          3.6840    -2.3380     2.0550 c3         1 JC2      -0.073700
     14 C04          3.3390    -1.5030     3.2850 c3         1 JC2      -0.074600
     15 C05          4.0300    -3.7660     2.4640 c3         1 JC2      -0.074600
     16 C06          3.4510    -0.5490    -0.4500 c          1 JC2       0.673100
     17 N02          4.0900     0.5370    -0.0060 ns         1 JC2      -0.535900
     18 C07          5.2790     1.0670    -0.6340 c3         1 JC2      -0.030300
     19 O02          7.5240     0.5010    -1.0950 o          1 JC2      -0.840800
     20 O03          6.5090    -0.6350     0.5340 o          1 JC2      -0.840800
     21 O04          3.7730    -1.1440    -1.4740 o          1 JC2      -0.647100
     22 O05         -0.4740     0.0110     1.2590 o          1 JC2      -0.828000
     23 N04         -2.7870    -0.2530    -1.1220 ns         1 JC2      -0.512900
     24 O06         -4.7170     0.4920    -0.3510 os         1 JC2      -0.448900
     25 C17         -9.4830    -0.1500     0.5550 ca         1 JC2      -0.136000
     26 C18         -8.7240     0.1650     1.6740 ca         1 JC2      -0.141000
     27 O07         -3.0190     1.9530    -0.6000 o          1 JC2      -0.605000
     28 C08          5.5010     2.5100    -0.1850 c3         1 JC2      -0.073400
     29 C09          4.3700     3.4530    -0.5710 c3         1 JC2       0.132800
     30 N03          4.6830     4.8170    -0.1620 n8         1 JC2      -0.892800
     31 H1          -1.0220     0.7690    -1.5280 h1         1 JC2       0.060700
     32 H2          -1.1350    -0.8290    -2.2380 h1         1 JC2       0.060700
     33 H3          -5.5850     2.3560    -0.6520 h1         1 JC2       0.049700
     34 H4          -5.2090     1.9650     1.0300 h1         1 JC2       0.049700
     35 H5          -7.3250     0.8470    -1.8550 ha         1 JC2       0.136500
     36 H6          -9.5630    -0.1440    -1.5910 ha         1 JC2       0.120000
     37 H7          -6.8700     0.9590     2.3990 ha         1 JC2       0.136500
     38 H9           1.2220    -1.7640    -1.2250 hn         1 JC2       0.372800
     39 H10          2.0270    -0.2530     1.1380 h1         1 JC2       0.075700
     40 H11          1.6230    -2.6890     1.5290 hc         1 JC2       0.043700
     41 H12          2.7540    -3.0760     0.2500 hc         1 JC2       0.043700
     42 H13          4.5700    -1.8970     1.5870 hc         1 JC2       0.106700
     43 H14          4.1580    -1.5100     4.0060 hc         1 JC2       0.018033
     44 H15          3.1380    -0.4590     3.0370 hc         1 JC2       0.018033
     45 H16          2.4510    -1.8960     3.7880 hc         1 JC2       0.018033
     46 H17          4.3320    -4.3650     1.6030 hc         1 JC2       0.018033
     47 H18          4.8510    -3.7870     3.1840 hc         1 JC2       0.018033
     48 H19          3.1720    -4.2630     2.9260 hc         1 JC2       0.018033
     49 H20          3.8240     0.9120     0.8900 hn         1 JC2       0.293500
     50 H21          5.1090     1.0730    -1.7150 h1         1 JC2       0.056700
     51 H23         -3.2230    -1.1550    -1.0140 hn         1 JC2       0.322500
     52 H24        -10.4680    -0.5830     0.6710 ha         1 JC2       0.115000
     53 H25         -9.1160    -0.0210     2.6660 ha         1 JC2       0.120000
     54 H26          5.6490     2.5380     0.9020 hc         1 JC2       0.045200
     55 H27          6.4280     2.8690    -0.6350 hc         1 JC2       0.045200
     56 H28          4.2570     3.4370    -1.6590 h1         1 JC2       0.033200
     57 H29          3.4210     3.0850    -0.1590 h1         1 JC2       0.033200
     58 H30          3.9350     5.4330    -0.4550 hn         1 JC2       0.316800
     59 H31          4.6880     4.8640     0.8500 hn         1 JC2       0.316800
     60 P01         -0.4820    -0.9760     0.1170 p5         1 JC2       1.183500
@<TRIPOS>BOND
     1     1    18 1   
     2     1    19 1   
     3     1    20 1   
     4     2    23 1   
     5     2    31 1   
     6     2    32 1   
     7     2    60 1   
     8     3    23 1   
     9     3    24 1   
    10     3    27 2   
    11     4     5 1   
    12     4    24 1   
    13     4    33 1   
    14     4    34 1   
    15     5     6 ar  
    16     5     8 ar  
    17     6     7 ar  
    18     6    35 1   
    19     7    25 ar  
    20     7    36 1   
    21     8    26 ar  
    22     8    37 1   
    23     9    60 1   
    24    10    11 1   
    25    10    38 1   
    26    10    60 1   
    27    11    12 1   
    28    11    16 1   
    29    11    39 1   
    30    12    13 1   
    31    12    40 1   
    32    12    41 1   
    33    13    14 1   
    34    13    15 1   
    35    13    42 1   
    36    14    43 1   
    37    14    44 1   
    38    14    45 1   
    39    15    46 1   
    40    15    47 1   
    41    15    48 1   
    42    16    17 1   
    43    16    21 2   
    44    17    18 1   
    45    17    49 1   
    46    18    28 1   
    47    18    50 1   
    48    22    60 1   
    49    23    51 1   
    50    25    26 ar  
    51    25    52 1   
    52    26    53 1   
    53    28    29 1   
    54    28    54 1   
    55    28    55 1   
    56    29    30 1   
    57    29    56 1   
    58    29    57 1   
    59    30    58 1   
    60    30    59 1   
@<TRIPOS>SUBSTRUCTURE
     1 JC2         1 TEMP              0 ****  ****    0 ROOT
