@<TRIPOS>MOLECULE
JC2
   60    60     1     0     0
SMALL
No Charge or Current Charge


@<TRIPOS>ATOM
      1 C10          6.7240     1.4790     1.3810 c          1 JC2       0.720000
      2 C11         -1.3020     0.3960    -0.6400 c3         1 JC2      -0.245000
      3 C12         -3.5970     1.1670     0.1350 c          1 JC2       0.626100
      4 C13         -5.8990     1.5230     0.6780 c3         1 JC2       0.229900
      5 C14         -7.2560     0.8950     0.3880 ca         1 JC2      -0.074300
      6 C15         -8.0080     1.3100    -0.7290 ca         1 JC2      -0.086500
      7 C16         -9.2620     0.7320    -0.9950 ca         1 JC2      -0.123000
      8 C19         -7.7710    -0.1070     1.2350 ca         1 JC2      -0.086500
      9 O01         -0.7140    -1.9450     0.7110 o          1 JC2      -0.828000
     10 N01          1.1450    -0.3330     0.0800 n7         1 JC2      -0.947500
     11 C01          2.4120    -0.7500     0.7620 c3         1 JC2       0.151500
     12 C02          2.4760    -2.2950     0.9590 c3         1 JC2      -0.095400
     13 C03          3.7890    -2.8470     1.5890 c3         1 JC2      -0.073700
     14 C04          4.0710    -2.2620     2.9940 c3         1 JC2      -0.074600
     15 C05          3.7650    -4.3930     1.6370 c3         1 JC2      -0.074600
     16 C06          3.6860    -0.2190     0.0060 c          1 JC2       0.606100
     17 N02          4.4450     0.7030     0.7050 ns         1 JC2      -0.468900
     18 C07          5.6920     1.3430     0.2170 c3         1 JC2      -0.030300
     19 O02          7.8420     1.0090     1.2180 o          1 JC2      -0.735500
     20 O03          6.3520     1.9670     2.4400 o          1 JC2      -0.735500
     21 O04          3.9950    -0.5890    -1.1240 o          1 JC2      -0.647100
     22 O05         -0.4170     0.1660     2.0290 o          1 JC2      -0.828000
     23 N04         -2.7890     0.3210    -0.5820 ns         1 JC2      -0.445900
     24 O06         -4.8880     0.7600    -0.0010 os         1 JC2      -0.472100
     25 C17         -9.7710    -0.2660    -0.1460 ca         1 JC2      -0.118000
     26 C18         -9.0250    -0.6850     0.9680 ca         1 JC2      -0.123000
     27 O07         -3.2150     2.1290     0.7840 o          1 JC2      -0.556000
     28 C08          5.4240     2.7150    -0.4560 c3         1 JC2      -0.073400
     29 C09          4.5590     2.6360    -1.7320 c3         1 JC2       0.132800
     30 N03          4.4060     3.9610    -2.3660 n8         1 JC2      -1.003200
     31 H1          -0.9860     1.4450    -0.5930 h1         1 JC2       0.060700
     32 H2          -0.9660    -0.0240    -1.5950 h1         1 JC2       0.060700
     33 H3          -5.8970     2.5660     0.3320 h1         1 JC2       0.049700
     34 H4          -5.7210     1.5280     1.7620 h1         1 JC2       0.049700
     35 H5          -7.6200     2.0800    -1.3930 ha         1 JC2       0.118500
     36 H6          -9.8380     1.0560    -1.8590 ha         1 JC2       0.102000
     37 H7          -7.1990    -0.4390     2.0980 ha         1 JC2       0.118500
     38 H9           1.0570    -0.8800    -0.7730 hn         1 JC2       0.428000
     39 H10          2.4370    -0.2890     1.7580 h1         1 JC2       0.075700
     40 H11          1.6430    -2.6110     1.5970 hc         1 JC2       0.043700
     41 H12          2.3250    -2.7770    -0.0150 hc         1 JC2       0.043700
     42 H13          4.6310    -2.5700     0.9400 hc         1 JC2       0.106700
     43 H14          4.9820    -2.7000     3.4180 hc         1 JC2       0.018033
     44 H15          4.2160    -1.1770     2.9530 hc         1 JC2       0.018033
     45 H16          3.2400    -2.4740     3.6780 hc         1 JC2       0.018033
     46 H17          3.6210    -4.8110     0.6340 hc         1 JC2       0.018033
     47 H18          4.7110    -4.7830     2.0320 hc         1 JC2       0.018033
     48 H19          2.9520    -4.7510     2.2790 hc         1 JC2       0.018033
     49 H20          4.1230     0.9500     1.6340 hn         1 JC2       0.293500
     50 H21          6.1500     0.6810    -0.5290 h1         1 JC2       0.056700
     51 H23         -3.2690    -0.4390    -1.0510 hn         1 JC2       0.322500
     52 H24        -10.7410    -0.7130    -0.3520 ha         1 JC2       0.097000
     53 H25         -9.4180    -1.4580     1.6250 ha         1 JC2       0.102000
     54 H26          4.9460     3.3850     0.2690 hc         1 JC2       0.045200
     55 H27          6.3900     3.1660    -0.7140 hc         1 JC2       0.045200
     56 H28          5.0260     1.9520    -2.4540 h1         1 JC2       0.033200
     57 H29          3.5600     2.2510    -1.4830 h1         1 JC2       0.033200
     58 H30          3.7760     3.8750    -3.1720 hn         1 JC2       0.372000
     59 H31          3.8990     4.5810    -1.7240 hn         1 JC2       0.372000
     60 P01         -0.3700    -0.4970     0.6960 p5         1 JC2       1.341300
@<TRIPOS>BOND
     1     1    18 1   
     2     1    19 1   
     3     1    20 1   
     4     2    23 1   
     5     2    31 1   
     6     2    32 1   
     7     2    60 1   
     8     3    23 1   
     9     3    24 1   
    10     3    27 2   
    11     4     5 1   
    12     4    24 1   
    13     4    33 1   
    14     4    34 1   
    15     5     6 ar  
    16     5     8 ar  
    17     6     7 ar  
    18     6    35 1   
    19     7    25 ar  
    20     7    36 1   
    21     8    26 ar  
    22     8    37 1   
    23     9    60 1   
    24    10    11 1   
    25    10    38 1   
    26    10    60 1   
    27    11    12 1   
    28    11    16 1   
    29    11    39 1   
    30    12    13 1   
    31    12    40 1   
    32    12    41 1   
    33    13    14 1   
    34    13    15 1   
    35    13    42 1   
    36    14    43 1   
    37    14    44 1   
    38    14    45 1   
    39    15    46 1   
    40    15    47 1   
    41    15    48 1   
    42    16    17 1   
    43    16    21 2   
    44    17    18 1   
    45    17    49 1   
    46    18    28 1   
    47    18    50 1   
    48    22    60 1   
    49    23    51 1   
    50    25    26 ar  
    51    25    52 1   
    52    26    53 1   
    53    28    29 1   
    54    28    54 1   
    55    28    55 1   
    56    29    30 1   
    57    29    56 1   
    58    29    57 1   
    59    30    58 1   
    60    30    59 1   
@<TRIPOS>SUBSTRUCTURE
     1 JC2         1 TEMP              0 ****  ****    0 ROOT
