@<TRIPOS>MOLECULE
JC3
   51    54     1     0     0
SMALL
bcc


@<TRIPOS>ATOM
      1 C13         50.8970   -26.3570   -14.1710 c5         1 JC3      -0.082400
      2 C15         52.4520   -28.1270   -13.9360 cc         1 JC3      -0.332400
      3 C20         54.8970   -30.1840    -5.8040 ca         1 JC3      -0.080300
      4 C21         55.3770   -31.4900    -5.7050 ca         1 JC3      -0.122500
      5 C22         56.3100   -31.8350    -4.7370 ca         1 JC3      -0.127000
      6 C24         56.3100   -29.5770    -3.9320 ca         1 JC3      -0.127000
      7 C3          52.5290   -30.4760    -6.5720 c6         1 JC3       0.166800
      8 C4          53.8740   -29.7980    -6.8410 c6         1 JC3      -0.014400
      9 C5          54.3380   -30.1040    -8.2660 c6         1 JC3      -0.083400
     10 C6          53.2480   -29.7270    -9.2590 c6         1 JC3       0.238500
     11 C7          51.9320   -30.4080    -8.8890 c6         1 JC3       0.144800
     12 C9          53.2300   -29.4360   -11.6970 cc         1 JC3       0.733800
     13 C11         52.1300   -27.7330   -12.6740 cd         1 JC3       0.221400
     14 C12         51.3280   -26.4660   -12.6980 c5         1 JC3      -0.037200
     15 C14         51.9140   -27.1940   -14.9760 c5         1 JC3       0.003800
     16 C16         53.2510   -29.2830   -14.1280 c          1 JC3       0.739700
     17 C23         56.7800   -30.8800    -3.8450 ca         1 JC3      -0.126000
     18 C25         55.3760   -29.2360    -4.9020 ca         1 JC3      -0.122500
     19 N2          51.5370   -30.0600    -7.5420 n3         1 JC3      -0.712600
     20 N8          53.6560   -30.0880   -10.6020 nu         1 JC3      -0.848200
     21 N10         52.4950   -28.3570   -11.5460 nd         1 JC3      -0.708300
     22 N18         53.6090   -29.9240   -12.9190 n          1 JC3      -0.412300
     23 O17         53.6240   -29.7330   -15.2040 o          1 JC3      -0.631500
     24 H131        50.8410   -25.3250   -14.5140 hc         1 JC3       0.045700
     25 H132        49.9020   -26.7900   -14.2880 hc         1 JC3       0.045700
     26 H221        56.6700   -32.8550    -4.6780 ha         1 JC3       0.131000
     27 H241        56.6690   -28.8220    -3.2430 ha         1 JC3       0.131000
     28 H012        49.9340   -30.2700    -6.2210 h1         1 JC3       0.033367
     29 H013        49.4890   -30.1900    -7.9250 h1         1 JC3       0.033367
     30 H011        50.1750   -31.6810    -7.2630 h1         1 JC3       0.033367
     31 H031        52.1780   -30.2010    -5.5740 h1         1 JC3       0.036700
     32 H032        52.6660   -31.5730    -6.5710 h1         1 JC3       0.036700
     33 H041        53.7110   -28.7180    -6.7660 hc         1 JC3       0.069700
     34 H051        54.5610   -31.1730    -8.3640 hc         1 JC3       0.047700
     35 H052        55.2580   -29.5600    -8.4920 hc         1 JC3       0.047700
     36 H061        53.1000   -28.6470    -9.2300 h1         1 JC3       0.105700
     37 H071        51.1520   -30.0870    -9.5830 h1         1 JC3       0.038700
     38 H072        52.0510   -31.5000    -9.0160 h1         1 JC3       0.038700
     39 H121        51.9650   -25.6300   -12.3940 hc         1 JC3       0.064700
     40 H122        50.4870   -26.4890   -12.0030 hc         1 JC3       0.064700
     41 H142        51.4450   -27.7090   -15.8170 hc         1 JC3       0.052700
     42 H141        52.7080   -26.5680   -15.3970 hc         1 JC3       0.052700
     43 H231        57.5090   -31.1480    -3.0910 ha         1 JC3       0.132000
     44 H251        55.0140   -28.2160    -4.9620 ha         1 JC3       0.129000
     45 H081        54.1250   -30.9740   -10.6980 hn         1 JC3       0.438800
     46 C19         54.4160   -31.1330   -12.9980 c3         1 JC3       0.055300
     47 H211        55.0210   -32.2520    -6.3880 ha         1 JC3       0.129000
     48 C1          50.2270   -30.5820    -7.2240 c3         1 JC3       0.156100
     49 H193        55.3710   -30.9980   -12.4900 h1         1 JC3       0.056700
     50 H191        53.8880   -31.9820   -12.5610 h1         1 JC3       0.056700
     51 H192        54.6100   -31.3530   -14.0400 h1         1 JC3       0.056700
@<TRIPOS>BOND
     1     1    14 1   
     2     1    15 1   
     3     1    24 1   
     4     1    25 1   
     5     2    13 2   
     6     2    15 1   
     7     2    16 1   
     8     3     4 ar  
     9     3     8 1   
    10     3    18 ar  
    11     4     5 ar  
    12     4    47 1   
    13     5    17 ar  
    14     5    26 1   
    15     6    17 ar  
    16     6    18 ar  
    17     6    27 1   
    18     7     8 1   
    19     7    19 1   
    20     7    31 1   
    21     7    32 1   
    22     8     9 1   
    23     8    33 1   
    24     9    10 1   
    25     9    34 1   
    26     9    35 1   
    27    10    11 1   
    28    10    20 1   
    29    10    36 1   
    30    11    19 1   
    31    11    37 1   
    32    11    38 1   
    33    12    20 1   
    34    12    21 2   
    35    12    22 1   
    36    13    14 1   
    37    13    21 1   
    38    14    39 1   
    39    14    40 1   
    40    15    41 1   
    41    15    42 1   
    42    16    22 1   
    43    16    23 2   
    44    17    43 1   
    45    18    44 1   
    46    19    48 1   
    47    20    45 1   
    48    22    46 1   
    49    28    48 1   
    50    29    48 1   
    51    30    48 1   
    52    46    49 1   
    53    46    50 1   
    54    46    51 1   
@<TRIPOS>SUBSTRUCTURE
     1 JC3         1 TEMP              0 ****  ****    0 ROOT
