@<TRIPOS>MOLECULE
JC3
   51    54     1     0     0
SMALL
No Charge or Current Charge


@<TRIPOS>ATOM
      1 C13         50.7050   -26.5030   -14.3740 c5         1 JC3      -0.082400
      2 C15         52.4570   -28.1080   -13.9600 cc         1 JC3      -0.332400
      3 C20         54.9240   -30.2620    -5.7240 ca         1 JC3      -0.080300
      4 C21         55.2670   -31.6260    -5.6020 ca         1 JC3      -0.104500
      5 C22         56.2340   -32.0360    -4.6690 ca         1 JC3      -0.109000
      6 C24         56.5340   -29.7290    -3.9640 ca         1 JC3      -0.109000
      7 C3          52.4850   -30.4660    -6.4840 c6         1 JC3       0.166800
      8 C4          53.8680   -29.8030    -6.7410 c6         1 JC3      -0.014400
      9 C5          54.3260   -30.0630    -8.2010 c6         1 JC3      -0.083400
     10 C6          53.2480   -29.5880    -9.2050 c6         1 JC3       0.238500
     11 C7          51.8710   -30.2430    -8.8610 c6         1 JC3       0.144800
     12 C9          53.2740   -29.3220   -11.7290 cc         1 JC3       0.733800
     13 C11         52.0630   -27.6730   -12.7350 cd         1 JC3       0.221400
     14 C12         51.1630   -26.4720   -12.8770 c5         1 JC3      -0.037200
     15 C14         51.8690   -27.2760   -15.0630 c5         1 JC3       0.003800
     16 C16         53.3430   -29.2500   -14.1270 c          1 JC3       0.597200
     17 C23         56.8680   -31.0880    -3.8490 ca         1 JC3      -0.108000
     18 C25         55.5670   -29.3170    -4.8980 ca         1 JC3      -0.104500
     19 N2          51.4530   -29.9910    -7.4480 n3         1 JC3      -0.712600
     20 N8          53.6820   -29.9390   -10.5780 nu         1 JC3      -0.903400
     21 N10         52.4740   -28.2820   -11.5670 nd         1 JC3      -0.708300
     22 N18         53.7360   -29.8410   -12.9290 n          1 JC3      -0.345300
     23 O17         53.7030   -29.6450   -15.2280 o          1 JC3      -0.556000
     24 H131        50.5450   -25.5040   -14.7950 hc         1 JC3       0.045700
     25 H132        49.7640   -27.0570   -14.4750 hc         1 JC3       0.045700
     26 H221        56.4930   -33.0890    -4.5820 ha         1 JC3       0.113000
     27 H241        57.0250   -28.9930    -3.3310 ha         1 JC3       0.113000
     28 H012        49.8060   -30.2820    -6.1280 h1         1 JC3       0.033367
     29 H013        49.3630   -30.1200    -7.8400 h1         1 JC3       0.033367
     30 H011        50.1000   -31.6300    -7.2530 h1         1 JC3       0.033367
     31 H031        52.1730   -30.2350    -5.4540 h1         1 JC3       0.036700
     32 H032        52.5860   -31.5600    -6.5500 h1         1 JC3       0.036700
     33 H041        53.7280   -28.7190    -6.6260 hc         1 JC3       0.069700
     34 H051        54.5220   -31.1340    -8.3450 hc         1 JC3       0.047700
     35 H052        55.2710   -29.5370    -8.3930 hc         1 JC3       0.047700
     36 H061        53.1400   -28.4980    -9.0920 h1         1 JC3       0.105700
     37 H071        51.1130   -29.8470    -9.5520 h1         1 JC3       0.038700
     38 H072        51.9370   -31.3260    -9.0450 h1         1 JC3       0.038700
     39 H121        51.7100   -25.5500   -12.6540 hc         1 JC3       0.064700
     40 H122        50.3080   -26.5060   -12.1930 hc         1 JC3       0.064700
     41 H142        51.5120   -27.8860   -15.9010 hc         1 JC3       0.052700
     42 H141        52.6210   -26.5850   -15.4640 hc         1 JC3       0.052700
     43 H231        57.6170   -31.4060    -3.1270 ha         1 JC3       0.114000
     44 H251        55.3190   -28.2610    -4.9760 ha         1 JC3       0.111000
     45 H081        54.2820   -30.7420   -10.7180 hn         1 JC3       0.494000
     46 C19         54.6470   -31.0220   -12.9800 c3         1 JC3       0.055300
     47 H211        54.7860   -32.3720    -6.2310 ha         1 JC3       0.111000
     48 C1          50.1110   -30.5360    -7.1520 c3         1 JC3       0.156100
     49 H193        55.5690   -30.8030   -12.4260 h1         1 JC3       0.056700
     50 H191        54.1500   -31.8920   -12.5320 h1         1 JC3       0.056700
     51 H192        54.9270   -31.2840   -14.0070 h1         1 JC3       0.056700
@<TRIPOS>BOND
     1     1    14 1   
     2     1    15 1   
     3     1    24 1   
     4     1    25 1   
     5     2    13 2   
     6     2    15 1   
     7     2    16 1   
     8     3     4 ar  
     9     3     8 1   
    10     3    18 ar  
    11     4     5 ar  
    12     4    47 1   
    13     5    17 ar  
    14     5    26 1   
    15     6    17 ar  
    16     6    18 ar  
    17     6    27 1   
    18     7     8 1   
    19     7    19 1   
    20     7    31 1   
    21     7    32 1   
    22     8     9 1   
    23     8    33 1   
    24     9    10 1   
    25     9    34 1   
    26     9    35 1   
    27    10    11 1   
    28    10    20 1   
    29    10    36 1   
    30    11    19 1   
    31    11    37 1   
    32    11    38 1   
    33    12    20 1   
    34    12    21 2   
    35    12    22 1   
    36    13    14 1   
    37    13    21 1   
    38    14    39 1   
    39    14    40 1   
    40    15    41 1   
    41    15    42 1   
    42    16    22 1   
    43    16    23 2   
    44    17    43 1   
    45    18    44 1   
    46    19    48 1   
    47    20    45 1   
    48    22    46 1   
    49    28    48 1   
    50    29    48 1   
    51    30    48 1   
    52    46    49 1   
    53    46    50 1   
    54    46    51 1   
@<TRIPOS>SUBSTRUCTURE
     1 JC3         1 TEMP              0 ****  ****    0 ROOT
