@<TRIPOS>MOLECULE
JC4
   48    50     1     0     0
SMALL
abcg2


@<TRIPOS>ATOM
      1 C10         -0.6190     4.4150    -0.5760 ca         1 JC4      -0.133000
      2 C13         -1.8510     0.8580    -0.3310 cp         1 JC4      -0.088000
      3 C15         -3.6410    -0.2380     0.9010 ca         1 JC4      -0.157600
      4 C20         -2.7220    -1.2470    -1.0610 ca         1 JC4      -0.218200
      5 C24         -1.8350    -0.1960    -1.2380 ca         1 JC4      -0.057000
      6 O01          5.5180     1.8900    -0.8450 oh         1 JC4      -0.716000
      7 C02          5.5300     0.5010    -0.6140 c3         1 JC4       0.171600
      8 C03          4.3290     0.1510     0.2360 c6         1 JC4       0.182300
      9 O04          3.1630     0.4090    -0.5270 os         1 JC4      -0.451000
     10 C05          1.9950     0.2600     0.2200 c6         1 JC4       0.367300
     11 C07          0.4400     1.8470    -0.5970 ca         1 JC4       0.122100
     12 C08          1.2860     2.9460    -0.6970 ca         1 JC4      -0.158000
     13 C09          0.7520     4.2270    -0.6830 ca         1 JC4      -0.101000
     14 C11         -1.4540     3.3120    -0.4790 ca         1 JC4      -0.080000
     15 C12         -0.9440     2.0160    -0.4850 cp         1 JC4      -0.029000
     16 C14         -2.7550     0.8190     0.7300 ca         1 JC4      -0.033000
     17 C16         -4.6200    -0.2580     2.0740 c          1 JC4       0.717600
     18 O17         -5.3870    -1.2350     2.1330 o          1 JC4      -0.704500
     19 O18         -4.5580     0.7060     2.8580 o          1 JC4      -0.704500
     20 C19         -3.6230    -1.2850    -0.0090 ca         1 JC4      -0.017000
     21 N21         -2.7050    -2.3430    -2.0200 no         1 JC4       0.696200
     22 O22         -3.5250    -3.2220    -1.8950 o          1 JC4      -0.426500
     23 O23         -1.8730    -2.3210    -2.8970 o          1 JC4      -0.426500
     24 C25          1.8380    -1.1860     0.6810 c6         1 JC4       0.110300
     25 O26          0.6980    -1.3470     1.4870 oh         1 JC4      -0.724000
     26 C27          3.0600    -1.5550     1.5150 c6         1 JC4       0.141300
     27 O28          3.0570    -2.9070     1.8950 oh         1 JC4      -0.674000
     28 C29          4.3430    -1.2910     0.7260 c6         1 JC4       0.146300
     29 O30          4.4650    -2.1470    -0.3820 oh         1 JC4      -0.709000
     30 H1          -1.0360     5.4130    -0.5720 ha         1 JC4       0.109000
     31 H2          -1.1580    -0.1850    -2.0800 ha         1 JC4       0.141000
     32 H3           6.2320     2.0970    -1.4540 ho         1 JC4       0.501000
     33 H4           5.4990    -0.0680    -1.5500 h1         1 JC4       0.036200
     34 H5           6.4310     0.1870    -0.0720 h1         1 JC4       0.036200
     35 H7           2.0080     0.9290     1.0990 h2         1 JC4       0.041700
     36 H8           2.3550     2.8070    -0.7920 ha         1 JC4       0.135000
     37 H9           1.4150     5.0780    -0.7640 ha         1 JC4       0.104000
     38 H10         -2.5250     3.4540    -0.4010 ha         1 JC4       0.127000
     39 H11         -2.7610     1.6260     1.4510 ha         1 JC4       0.142000
     40 H13         -4.3080    -2.1110     0.1180 ha         1 JC4       0.169000
     41 H14          1.8020    -1.8310    -0.2080 h1         1 JC4       0.079700
     42 H15         -0.0830    -1.3390     0.9240 ho         1 JC4       0.541000
     43 H16          3.0780    -0.8970     2.3990 h1         1 JC4       0.044700
     44 H17          2.2290    -3.0960     2.3490 ho         1 JC4       0.475000
     45 H18          5.1950    -1.4030     1.4140 h1         1 JC4       0.040700
     46 H19          4.4240    -3.0560    -0.0650 ho         1 JC4       0.521000
     47 O06          0.9110     0.5690    -0.6010 os         1 JC4      -0.338100
     48 H6           4.3390     0.7930     1.1310 h1         1 JC4       0.046700
@<TRIPOS>BOND
     1     1    13 ar  
     2     1    14 ar  
     3     1    30 1   
     4     2     5 ar  
     5     2    15 1   
     6     2    16 ar  
     7     3    16 ar  
     8     3    17 1   
     9     3    20 ar  
    10     4     5 ar  
    11     4    20 ar  
    12     4    21 1   
    13     5    31 1   
    14     6     7 1   
    15     6    32 1   
    16     7     8 1   
    17     7    33 1   
    18     7    34 1   
    19     8     9 1   
    20     8    28 1   
    21     8    48 1   
    22     9    10 1   
    23    10    24 1   
    24    10    35 1   
    25    10    47 1   
    26    11    12 ar  
    27    11    15 ar  
    28    11    47 1   
    29    12    13 ar  
    30    12    36 1   
    31    13    37 1   
    32    14    15 ar  
    33    14    38 1   
    34    16    39 1   
    35    17    18 1   
    36    17    19 1   
    37    20    40 1   
    38    21    22 1   
    39    21    23 1   
    40    24    25 1   
    41    24    26 1   
    42    24    41 1   
    43    25    42 1   
    44    26    27 1   
    45    26    28 1   
    46    26    43 1   
    47    27    44 1   
    48    28    29 1   
    49    28    45 1   
    50    29    46 1   
@<TRIPOS>SUBSTRUCTURE
     1 JC4         1 TEMP              0 ****  ****    0 ROOT
