@<TRIPOS>MOLECULE
JC4
   48    50     1     0     0
SMALL
No Charge or Current Charge


@<TRIPOS>ATOM
      1 C10         -0.4980     4.4590    -0.3000 ca         1 JC4      -0.133000
      2 C13         -1.9680     0.9350    -0.2260 cp         1 JC4      -0.088000
      3 C15         -4.2020     0.0110     0.2740 ca         1 JC4      -0.157600
      4 C20         -2.6000    -1.2970    -1.0560 ca         1 JC4      -0.218200
      5 C24         -1.6630    -0.2450    -0.9450 ca         1 JC4      -0.057000
      6 O01          4.9740     1.8740    -1.7950 oh         1 JC4      -0.716000
      7 C02          5.1240     0.4880    -1.4210 c3         1 JC4       0.171600
      8 C03          4.3300     0.1050    -0.1280 c6         1 JC4       0.182300
      9 O04          2.9170     0.3620    -0.3480 os         1 JC4      -0.451000
     10 C05          2.1190     0.1890     0.8420 c6         1 JC4       0.367300
     11 C07          0.3800     1.8420     0.2600 ca         1 JC4       0.122100
     12 C08          1.2780     2.9310     0.3480 ca         1 JC4      -0.158000
     13 C09          0.8370     4.2340     0.0660 ca         1 JC4      -0.101000
     14 C11         -1.3950     3.3820    -0.3870 ca         1 JC4      -0.080000
     15 C12         -0.9780     2.0550    -0.1150 cp         1 JC4      -0.029000
     16 C14         -3.2460     1.0460     0.3710 ca         1 JC4      -0.033000
     17 C16         -5.5630     0.1520     0.9270 c          1 JC4       0.717600
     18 O17         -6.3570    -0.7730     0.8270 o          1 JC4      -0.704500
     19 O18         -5.8180     1.1840     1.5300 o          1 JC4      -0.704500
     20 C19         -3.8670    -1.1610    -0.4420 ca         1 JC4      -0.017000
     21 N21         -2.2570    -2.5420    -1.8180 no         1 JC4       0.696200
     22 O22         -3.1140    -3.4310    -1.9030 o          1 JC4      -0.426500
     23 O23         -1.1310    -2.6280    -2.3250 o          1 JC4      -0.426500
     24 C25          2.1950    -1.3030     1.3050 c6         1 JC4       0.110300
     25 O26          1.3940    -1.5660     2.4870 oh         1 JC4      -0.724000
     26 C27          3.6850    -1.6850     1.5620 c6         1 JC4       0.141300
     27 O28          3.7760    -3.0770     1.9190 oh         1 JC4      -0.674000
     28 C29          4.5660    -1.3810     0.3100 c6         1 JC4       0.146300
     29 O30          4.2410    -2.3280    -0.7290 oh         1 JC4      -0.709000
     30 H1          -0.8380     5.4690    -0.5170 ha         1 JC4       0.109000
     31 H2          -0.6890    -0.3270    -1.4230 ha         1 JC4       0.141000
     32 H3           5.4260     1.9880    -2.6630 ho         1 JC4       0.501000
     33 H4           4.7820    -0.1600    -2.2400 h1         1 JC4       0.036200
     34 H5           6.1840     0.2600    -1.2480 h1         1 JC4       0.036200
     35 H7           2.5060     0.8310     1.6480 h2         1 JC4       0.041700
     36 H8           2.3160     2.7890     0.6350 ha         1 JC4       0.135000
     37 H9           1.5310     5.0700     0.1330 ha         1 JC4       0.104000
     38 H10         -2.4240     3.5740    -0.6810 ha         1 JC4       0.127000
     39 H11         -3.4870     1.9510     0.9250 ha         1 JC4       0.142000
     40 H13         -4.5980    -1.9640    -0.5210 ha         1 JC4       0.169000
     41 H14          1.8250    -1.9140     0.4670 h1         1 JC4       0.079700
     42 H15          0.4920    -1.2050     2.3030 ho         1 JC4       0.541000
     43 H16          4.0550    -1.0670     2.3940 h1         1 JC4       0.044700
     44 H17          3.0270    -3.2230     2.5440 ho         1 JC4       0.475000
     45 H18          5.6220    -1.4940     0.5960 h1         1 JC4       0.040700
     46 H19          4.0890    -3.1740    -0.2420 ho         1 JC4       0.521000
     47 O06          0.7510     0.5440     0.5680 os         1 JC4      -0.338100
     48 H6           4.6810     0.7660     0.6790 h1         1 JC4       0.046700
@<TRIPOS>BOND
     1     1    13 ar  
     2     1    14 ar  
     3     1    30 1   
     4     2     5 ar  
     5     2    15 1   
     6     2    16 ar  
     7     3    16 ar  
     8     3    17 1   
     9     3    20 ar  
    10     4     5 ar  
    11     4    20 ar  
    12     4    21 1   
    13     5    31 1   
    14     6     7 1   
    15     6    32 1   
    16     7     8 1   
    17     7    33 1   
    18     7    34 1   
    19     8     9 1   
    20     8    28 1   
    21     8    48 1   
    22     9    10 1   
    23    10    24 1   
    24    10    35 1   
    25    10    47 1   
    26    11    12 ar  
    27    11    15 ar  
    28    11    47 1   
    29    12    13 ar  
    30    12    36 1   
    31    13    37 1   
    32    14    15 ar  
    33    14    38 1   
    34    16    39 1   
    35    17    18 1   
    36    17    19 1   
    37    20    40 1   
    38    21    22 1   
    39    21    23 1   
    40    24    25 1   
    41    24    26 1   
    42    24    41 1   
    43    25    42 1   
    44    26    27 1   
    45    26    28 1   
    46    26    43 1   
    47    27    44 1   
    48    28    29 1   
    49    28    45 1   
    50    29    46 1   
@<TRIPOS>SUBSTRUCTURE
     1 JC4         1 TEMP              0 ****  ****    0 ROOT
