@<TRIPOS>MOLECULE
JC5
   52    54     1     0     0
SMALL
bcc


@<TRIPOS>ATOM
      1 N1           3.8750     4.2650     0.5280 n8         1 JC5      -0.880800
      2 C4           4.7490     1.3270     0.1380 ca         1 JC5      -0.129000
      3 C5           3.6360     2.0020    -0.3410 ca         1 JC5      -0.057300
      4 C6           3.7130     3.4670    -0.6800 c3         1 JC5       0.195100
      5 C7           2.4270     1.3210    -0.4480 ca         1 JC5      -0.207000
      6 C8           2.3390    -0.0240    -0.0990 ca         1 JC5       0.120100
      7 C10         -1.1170    -1.1290    -0.4440 c3         1 JC5      -0.081400
      8 C13         -5.5350    -0.2040    -0.5770 ca         1 JC5      -0.122800
      9 C15         -7.1480     1.3190     0.3050 ca         1 JC5      -0.128500
     10 C17         -5.6900     0.1130     1.8090 ca         1 JC5      -0.106500
     11 N            6.5810    -1.4190    -0.1810 n8         1 JC5      -0.885800
     12 C            3.4810    -2.9310    -0.3730 c3         1 JC5       0.125700
     13 C1           3.4820    -0.7000     0.3510 ca         1 JC5       0.096100
     14 C11         -2.4290    -0.5270    -0.9240 c3         1 JC5       0.156800
     15 C12         -4.7210    -1.0300    -1.5400 c5         1 JC5       0.194600
     16 C14         -6.5610     0.6980    -0.7950 ca         1 JC5      -0.106500
     17 C16         -6.7160     1.0300     1.5950 ca         1 JC5      -0.128500
     18 C18         -5.1070    -0.4970     0.7120 ca         1 JC5      -0.122800
     19 C19         -4.0060    -1.5220     0.6220 c5         1 JC5       0.194600
     20 C2           4.6930    -0.0240     0.4710 ca         1 JC5      -0.066300
     21 C3           5.9360    -0.7350     0.9340 c3         1 JC5       0.197100
     22 C9           0.0050    -0.1160    -0.5470 c3         1 JC5       0.138400
     23 N2          -3.5450    -1.4540    -0.7710 n3         1 JC5      -0.692600
     24 O1           1.2100    -0.7530    -0.1600 os         1 JC5      -0.309900
     25 H27          3.9570     5.2410     0.2700 hn         1 JC5       0.338300
     26 H11          3.0340     4.1990     1.0870 hn         1 JC5       0.338300
     27 H7           5.6890     1.8580     0.2490 ha         1 JC5       0.137000
     28 H9           2.8350     3.7420    -1.2790 h1         1 JC5       0.033200
     29 H8           4.5850     3.6450    -1.3140 h1         1 JC5       0.033200
     30 H12          1.5580     1.8530    -0.8130 ha         1 JC5       0.130000
     31 H15         -1.2000    -1.4610     0.5940 hc         1 JC5       0.064200
     32 H16         -0.8820    -2.0080    -1.0500 hc         1 JC5       0.064200
     33 H24         -5.3560    -0.1090     2.8150 ha         1 JC5       0.133500
     34 H5           6.9510    -0.7310    -0.8250 hn         1 JC5       0.337300
     35 H6           7.3830    -1.9330     0.1630 hn         1 JC5       0.337300
     36 H2           3.3880    -3.9290     0.0510 h1         1 JC5       0.039367
     37 H1           2.6820    -2.7900    -1.1040 h1         1 JC5       0.039367
     38 H            4.4500    -2.8420    -0.8690 h1         1 JC5       0.039367
     39 H17         -2.6110     0.4340    -0.4150 h1         1 JC5       0.034200
     40 H18         -2.3300    -0.2960    -1.9870 h1         1 JC5       0.034200
     41 H20         -5.2920    -1.9080    -1.8630 h1         1 JC5       0.064950
     42 H19         -4.4310    -0.4910    -2.4420 h1         1 JC5       0.064950
     43 H21         -6.9020     0.9270    -1.7980 ha         1 JC5       0.133500
     44 H23         -7.1780     1.5270     2.4380 ha         1 JC5       0.131000
     45 H25         -3.1900    -1.3460     1.3240 h1         1 JC5       0.064950
     46 H26         -4.3980    -2.5220     0.8390 h1         1 JC5       0.064950
     47 H3           5.6810    -1.4820     1.6870 h1         1 JC5       0.042700
     48 H4           6.5870    -0.0030     1.4280 h1         1 JC5       0.042700
     49 H13          0.0880     0.2610    -1.5740 h1         1 JC5       0.030700
     50 H14         -0.2020     0.7420     0.1040 h1         1 JC5       0.030700
     51 O            3.3790    -2.0100     0.7070 os         1 JC5      -0.329900
     52 H22         -7.9460     2.0350     0.1570 ha         1 JC5       0.131000
@<TRIPOS>BOND
     1     1     4 1   
     2     1    25 1   
     3     1    26 1   
     4     2     3 ar  
     5     2    20 ar  
     6     2    27 1   
     7     3     4 1   
     8     3     5 ar  
     9     4    28 1   
    10     4    29 1   
    11     5     6 ar  
    12     5    30 1   
    13     6    13 ar  
    14     6    24 1   
    15     7    14 1   
    16     7    22 1   
    17     7    31 1   
    18     7    32 1   
    19     8    15 1   
    20     8    16 ar  
    21     8    18 ar  
    22     9    16 ar  
    23     9    17 ar  
    24     9    52 1   
    25    10    17 ar  
    26    10    18 ar  
    27    10    33 1   
    28    11    21 1   
    29    11    34 1   
    30    11    35 1   
    31    12    36 1   
    32    12    37 1   
    33    12    38 1   
    34    12    51 1   
    35    13    20 ar  
    36    13    51 1   
    37    14    23 1   
    38    14    39 1   
    39    14    40 1   
    40    15    23 1   
    41    15    41 1   
    42    15    42 1   
    43    16    43 1   
    44    17    44 1   
    45    18    19 1   
    46    19    23 1   
    47    19    45 1   
    48    19    46 1   
    49    20    21 1   
    50    21    47 1   
    51    21    48 1   
    52    22    24 1   
    53    22    49 1   
    54    22    50 1   
@<TRIPOS>SUBSTRUCTURE
     1 JC5         1 TEMP              0 ****  ****    0 ROOT
