@<TRIPOS>MOLECULE
JC5
   52    54     1     0     0
SMALL
No Charge or Current Charge


@<TRIPOS>ATOM
      1 N1           3.9960     4.3580     0.2550 n8         1 JC5      -0.991200
      2 C4           5.0790     1.2470    -0.0110 ca         1 JC5      -0.111000
      3 C5           3.9740     1.9820    -0.4670 ca         1 JC5      -0.057300
      4 C6           4.1420     3.4380    -0.8890 c3         1 JC5       0.195100
      5 C7           2.7160     1.3620    -0.5330 ca         1 JC5      -0.189000
      6 C8           2.5450     0.0110    -0.1460 ca         1 JC5       0.120100
      7 C10         -1.0580    -0.8710    -0.6080 c3         1 JC5      -0.081400
      8 C13         -5.6320    -0.1870    -0.6340 ca         1 JC5      -0.122800
      9 C15         -7.4040     0.9170     0.5860 ca         1 JC5      -0.110500
     10 C17         -5.8530    -0.5810     1.7450 ca         1 JC5      -0.088500
     11 N            7.0760    -1.2410    -0.2430 n8         1 JC5      -0.996200
     12 C            2.4480    -2.8880     0.7430 c3         1 JC5       0.148900
     13 C1           3.6780    -0.7340     0.3190 ca         1 JC5       0.096100
     14 C11         -2.3840    -0.2370    -1.0790 c3         1 JC5       0.156800
     15 C12         -4.7570    -0.6000    -1.7880 c5         1 JC5       0.194600
     16 C14         -6.7350     0.6810    -0.6330 ca         1 JC5      -0.088500
     17 C16         -6.9630     0.2870     1.7720 ca         1 JC5      -0.110500
     18 C18         -5.2040    -0.8000     0.5190 ca         1 JC5      -0.122800
     19 C19         -4.0090    -1.6680     0.2260 c5         1 JC5       0.194600
     20 C2           4.9450    -0.0990     0.3780 ca         1 JC5      -0.066300
     21 C3           6.1920    -0.8370     0.8720 c3         1 JC5       0.197100
     22 C9           0.1200     0.1170    -0.6770 c3         1 JC5       0.161600
     23 N2          -3.5270    -1.1790    -1.1260 n3         1 JC5      -0.692600
     24 O1           1.2920    -0.5760    -0.2190 os         1 JC5      -0.333100
     25 H27          4.0210     5.3240    -0.0910 hn         1 JC5       0.393500
     26 H11          3.0480     4.2570     0.6350 hn         1 JC5       0.393500
     27 H7           6.0530     1.7290     0.0440 ha         1 JC5       0.119000
     28 H9           3.3880     3.6930    -1.6470 h1         1 JC5       0.033200
     29 H8           5.1360     3.5840    -1.3360 h1         1 JC5       0.033200
     30 H12          1.8770     1.9530    -0.8890 ha         1 JC5       0.112000
     31 H15         -1.1540    -1.2300     0.4220 hc         1 JC5       0.064200
     32 H16         -0.8330    -1.7400    -1.2380 hc         1 JC5       0.064200
     33 H24         -5.5060    -1.0700     2.6530 ha         1 JC5       0.115500
     34 H5           7.3930    -0.3980    -0.7350 hn         1 JC5       0.392500
     35 H6           7.9400    -1.6390     0.1450 hn         1 JC5       0.392500
     36 H2           2.6920    -3.8920     1.1100 h1         1 JC5       0.039367
     37 H1           1.6820    -2.4670     1.4080 h1         1 JC5       0.039367
     38 H            2.0320    -2.9930    -0.2670 h1         1 JC5       0.039367
     39 H17         -2.6250     0.6130    -0.4240 h1         1 JC5       0.034200
     40 H18         -2.2160     0.1720    -2.0850 h1         1 JC5       0.034200
     41 H20         -5.2750    -1.3600    -2.3900 h1         1 JC5       0.064950
     42 H19         -4.5270     0.2470    -2.4500 h1         1 JC5       0.064950
     43 H21         -7.0670     1.1620    -1.5510 ha         1 JC5       0.115500
     44 H23         -7.4830     0.4730     2.7090 ha         1 JC5       0.113000
     45 H25         -3.2520    -1.5850     1.0170 h1         1 JC5       0.064950
     46 H26         -4.3220    -2.7200     0.1750 h1         1 JC5       0.064950
     47 H3           5.9220    -1.7290     1.4530 h1         1 JC5       0.042700
     48 H4           6.7580    -0.1720     1.5410 h1         1 JC5       0.042700
     49 H13          0.2500     0.4610    -1.7110 h1         1 JC5       0.030700
     50 H14         -0.0930     0.9850    -0.0380 h1         1 JC5       0.030700
     51 O            3.6290    -2.0650     0.7320 os         1 JC5      -0.353100
     52 H22         -8.2610     1.5850     0.6130 ha         1 JC5       0.113000
@<TRIPOS>BOND
     1     1     4 1   
     2     1    25 1   
     3     1    26 1   
     4     2     3 ar  
     5     2    20 ar  
     6     2    27 1   
     7     3     4 1   
     8     3     5 ar  
     9     4    28 1   
    10     4    29 1   
    11     5     6 ar  
    12     5    30 1   
    13     6    13 ar  
    14     6    24 1   
    15     7    14 1   
    16     7    22 1   
    17     7    31 1   
    18     7    32 1   
    19     8    15 1   
    20     8    16 ar  
    21     8    18 ar  
    22     9    16 ar  
    23     9    17 ar  
    24     9    52 1   
    25    10    17 ar  
    26    10    18 ar  
    27    10    33 1   
    28    11    21 1   
    29    11    34 1   
    30    11    35 1   
    31    12    36 1   
    32    12    37 1   
    33    12    38 1   
    34    12    51 1   
    35    13    20 ar  
    36    13    51 1   
    37    14    23 1   
    38    14    39 1   
    39    14    40 1   
    40    15    23 1   
    41    15    41 1   
    42    15    42 1   
    43    16    43 1   
    44    17    44 1   
    45    18    19 1   
    46    19    23 1   
    47    19    45 1   
    48    19    46 1   
    49    20    21 1   
    50    21    47 1   
    51    21    48 1   
    52    22    24 1   
    53    22    49 1   
    54    22    50 1   
@<TRIPOS>SUBSTRUCTURE
     1 JC5         1 TEMP              0 ****  ****    0 ROOT
