@<TRIPOS>MOLECULE
JC6
   94    99     1     0     0
SMALL
abcg2


@<TRIPOS>ATOM
      1 C1         -14.2190    -3.9670    26.3900 c6         1 JC6       0.407300
      2 C2         -15.4250    -3.4470    25.6060 c6         1 JC6       0.108300
      3 C3         -16.4010    -4.5780    25.2930 c6         1 JC6       0.114300
      4 C4         -15.6830    -5.7630    24.6590 c6         1 JC6       0.143300
      5 C5         -14.4990    -6.1530    25.5450 c6         1 JC6       0.181300
      6 C6         -13.6910    -7.2930    24.9620 c3         1 JC6       0.172600
      7 CAA        -11.1970    -4.7260    27.7440 c2         1 JC6      -0.304000
      8 CAB        -11.8790    -3.7760    28.3700 c2         1 JC6      -0.148400
      9 CAC        -11.9830    -3.5790    29.8600 c5         1 JC6      -0.047200
     10 CAD        -12.7120    -2.2310    30.0610 c5         1 JC6      -0.036000
     11 CAE        -13.6350    -2.2350    28.8330 c5         1 JC6      -0.088400
     12 CAF        -13.4740    -2.2210    31.3760 c6         1 JC6      -0.064400
     13 CAG        -14.0460    -0.8530    31.7060 c6         1 JC6      -0.062400
     14 CAH        -12.9160     0.1670    31.8290 c6         1 JC6      -0.006700
     15 CAI        -13.2590     1.4900    32.5720 c6         1 JC6      -0.164000
     16 CAJ        -13.7500     1.1510    33.9900 c3         1 JC6      -0.062100
     17 CAK        -14.3910     2.3420    31.9210 c          1 JC6       0.725000
     18 OAM        -15.4860     1.7680    31.7410 o          1 JC6      -0.735000
     19 OAL        -14.1610     3.5460    31.6780 o          1 JC6      -0.735000
     20 CAN        -11.9550     2.2780    32.7430 c6         1 JC6      -0.038400
     21 CAO        -11.1770     2.4940    31.4570 c6         1 JC6      -0.065400
     22 CAP        -10.8960     1.1740    30.7540 c6         1 JC6      -0.065400
     23 CAQ        -12.1590     0.3310    30.4830 c6         1 JC6      -0.015000
     24 CAR        -12.9860     1.0480    29.4150 c3         1 JC6      -0.080100
     25 CAS        -11.6740    -1.0840    30.0240 c6         1 JC6      -0.038700
     26 CAT        -10.9120    -1.1110    28.6800 c6         1 JC6      -0.061400
     27 CAU        -11.7440    -1.4770    27.4500 c6         1 JC6      -0.054400
     28 CAV        -12.6760    -2.6590    27.7190 c5         1 JC6       0.221200
     29 O1         -13.2730    -2.9660    26.4710 os         1 JC6      -0.432000
     30 O5         -13.6490    -5.0340    25.6780 os         1 JC6      -0.463000
     31 O6         -12.7000    -7.6700    25.8870 oh         1 JC6      -0.707000
     32 O4         -16.5380    -6.8710    24.5290 oh         1 JC6      -0.724000
     33 O3         -17.4120    -4.1720    24.4010 oh         1 JC6      -0.747000
     34 O2         -16.0800    -2.4690    26.3880 os         1 JC6      -0.442000
     35 CBI        -16.5440    -1.3360    25.7520 c6         1 JC6       0.384300
     36 OBL        -15.6770    -0.2790    26.0590 os         1 JC6      -0.440000
     37 CBM        -16.0410     0.9260    25.4110 c6         1 JC6       0.148300
     38 CBR        -14.9520     1.9510    25.6510 c3         1 JC6       0.167600
     39 OBS        -14.9830     2.3700    26.9930 oh         1 JC6      -0.697000
     40 CBN        -17.4300     1.3880    25.8820 c6         1 JC6       0.147300
     41 OBO        -17.8360     2.5400    25.1860 oh         1 JC6      -0.716000
     42 CBP        -18.4400     0.2800    25.6180 c6         1 JC6       0.170300
     43 OBQ        -19.6850     0.6710    26.1320 oh         1 JC6      -0.637000
     44 CBJ        -17.9460    -1.0120    26.2610 c6         1 JC6       0.086300
     45 OBK        -18.8490    -2.0540    25.9360 oh         1 JC6      -0.744000
     46 H1         -14.5460    -4.3160    27.3840 h2         1 JC6       0.048700
     47 H2         -15.0560    -3.0160    24.6650 h1         1 JC6       0.074700
     48 H3         -16.8330    -4.9230    26.2470 h1         1 JC6       0.048700
     49 H4         -15.2860    -5.4510    23.6790 h1         1 JC6       0.053700
     50 H5         -14.8850    -6.4590    26.5320 h1         1 JC6       0.058700
     51 H6         -13.2580    -6.9680    24.0050 h1         1 JC6       0.031700
     52 H7         -14.3720    -8.1210    24.7420 h1         1 JC6       0.031700
     53 H8         -10.6330    -5.4680    28.2970 ha         1 JC6       0.165000
     54 H9         -11.1830    -4.8090    26.6670 ha         1 JC6       0.165000
     55 H10        -12.5950    -4.3810    30.2910 hc         1 JC6       0.043700
     56 H11        -11.0150    -3.6160    30.3670 hc         1 JC6       0.043700
     57 H14        -14.2700    -2.9730    31.3360 hc         1 JC6       0.022700
     58 H15        -12.8000    -2.5320    32.1840 hc         1 JC6       0.022700
     59 H16        -14.7730    -0.5560    30.9490 hc         1 JC6       0.060200
     60 H17        -14.5990    -0.9190    32.6440 hc         1 JC6       0.060200
     61 H18        -12.1820    -0.3100    32.5020 hc         1 JC6       0.000700
     62 H19        -13.8560     2.0630    34.5840 hc         1 JC6       0.015367
     63 H20        -14.7130     0.6460    33.9910 hc         1 JC6       0.015367
     64 H21        -13.0310     0.5080    34.5070 hc         1 JC6       0.015367
     65 H23        -11.3110     1.7200    33.4370 hc         1 JC6       0.018200
     66 H24        -12.1600     3.2350    33.2290 hc         1 JC6       0.018200
     67 H25        -10.2250     2.9860    31.6800 hc         1 JC6       0.035200
     68 H26        -11.7220     3.1750    30.8020 hc         1 JC6       0.035200
     69 H27        -10.2120     0.5880    31.3800 hc         1 JC6       0.013700
     70 H28        -10.3650     1.3690    29.8190 hc         1 JC6       0.013700
     71 H29        -13.1900     2.0800    29.6920 hc         1 JC6       0.039033
     72 H30        -12.4410     1.0810    28.4700 hc         1 JC6       0.039033
     73 H31        -13.9480     0.5790    29.2200 hc         1 JC6       0.039033
     74 H32        -10.9370    -1.3580    30.7910 hc         1 JC6       0.030700
     75 H33        -10.1020    -1.8390    28.7650 hc         1 JC6       0.032700
     76 H34        -10.4150    -0.1580    28.4890 hc         1 JC6       0.032700
     77 H35        -11.0660    -1.7280    26.6280 hc         1 JC6       0.048200
     78 H36        -12.3510    -0.6300    27.1170 hc         1 JC6       0.048200
     79 H37        -12.2060    -8.4050    25.5130 ho         1 JC6       0.497000
     80 H38        -17.3100    -6.5910    24.0260 ho         1 JC6       0.521000
     81 H39        -18.0190    -3.5710    24.8570 ho         1 JC6       0.536000
     82 H40        -16.5800    -1.4790    24.6570 h2         1 JC6       0.030700
     83 H41        -16.0870     0.7630    24.3220 h1         1 JC6       0.033700
     84 H42        -13.9890     1.5000    25.3810 h1         1 JC6       0.024700
     85 H43        -15.1110     2.7860    24.9580 h1         1 JC6       0.024700
     86 H44        -14.2340     2.9510    27.1520 ho         1 JC6       0.517000
     87 H45        -17.3980     1.5650    26.9650 h1         1 JC6       0.095700
     88 H46        -17.4510     3.3100    25.6140 ho         1 JC6       0.518000
     89 H47        -18.4980     0.1190    24.5270 h1         1 JC6       0.039700
     90 H48        -20.3130    -0.0400    25.9630 ho         1 JC6       0.446000
     91 H49        -17.8960    -0.8680    27.3480 h1         1 JC6       0.089700
     92 H50        -19.0180    -2.5760    26.7260 ho         1 JC6       0.518000
     93 H12        -14.1210    -1.2880    28.6130 hc         1 JC6       0.063700
     94 H13        -14.4190    -2.9830    28.9900 hc         1 JC6       0.063700
@<TRIPOS>BOND
     1     1     2 1   
     2     1    29 1   
     3     1    30 1   
     4     1    46 1   
     5     2     3 1   
     6     2    34 1   
     7     2    47 1   
     8     3     4 1   
     9     3    33 1   
    10     3    48 1   
    11     4     5 1   
    12     4    32 1   
    13     4    49 1   
    14     5     6 1   
    15     5    30 1   
    16     5    50 1   
    17     6    31 1   
    18     6    51 1   
    19     6    52 1   
    20     7     8 2   
    21     7    53 1   
    22     7    54 1   
    23     8     9 1   
    24     8    28 1   
    25     9    10 1   
    26     9    55 1   
    27     9    56 1   
    28    10    11 1   
    29    10    12 1   
    30    10    25 1   
    31    11    28 1   
    32    11    93 1   
    33    11    94 1   
    34    12    13 1   
    35    12    57 1   
    36    12    58 1   
    37    13    14 1   
    38    13    59 1   
    39    13    60 1   
    40    14    15 1   
    41    14    23 1   
    42    14    61 1   
    43    15    16 1   
    44    15    17 1   
    45    15    20 1   
    46    16    62 1   
    47    16    63 1   
    48    16    64 1   
    49    17    18 1   
    50    17    19 1   
    51    20    21 1   
    52    20    65 1   
    53    20    66 1   
    54    21    22 1   
    55    21    67 1   
    56    21    68 1   
    57    22    23 1   
    58    22    69 1   
    59    22    70 1   
    60    23    24 1   
    61    23    25 1   
    62    24    71 1   
    63    24    72 1   
    64    24    73 1   
    65    25    26 1   
    66    25    74 1   
    67    26    27 1   
    68    26    75 1   
    69    26    76 1   
    70    27    28 1   
    71    27    77 1   
    72    27    78 1   
    73    28    29 1   
    74    31    79 1   
    75    32    80 1   
    76    33    81 1   
    77    34    35 1   
    78    35    36 1   
    79    35    44 1   
    80    35    82 1   
    81    36    37 1   
    82    37    38 1   
    83    37    40 1   
    84    37    83 1   
    85    38    39 1   
    86    38    84 1   
    87    38    85 1   
    88    39    86 1   
    89    40    41 1   
    90    40    42 1   
    91    40    87 1   
    92    41    88 1   
    93    42    43 1   
    94    42    44 1   
    95    42    89 1   
    96    43    90 1   
    97    44    45 1   
    98    44    91 1   
    99    45    92 1   
@<TRIPOS>SUBSTRUCTURE
     1 JC6         1 TEMP              0 ****  ****    0 ROOT
