@<TRIPOS>MOLECULE
JC6
   94    99     1     0     0
SMALL
No Charge or Current Charge


@<TRIPOS>ATOM
      1 C1         -14.0060    -3.9060    26.3530 c6         1 JC6       0.407300
      2 C2         -15.2660    -3.3050    25.6490 c6         1 JC6       0.108300
      3 C3         -16.2970    -4.4570    25.3980 c6         1 JC6       0.114300
      4 C4         -15.6290    -5.6110    24.6000 c6         1 JC6       0.143300
      5 C5         -14.3560    -6.0970    25.3580 c6         1 JC6       0.181300
      6 C6         -13.5920    -7.2190    24.5780 c3         1 JC6       0.172600
      7 CAA        -11.3330    -4.9510    27.9930 c2         1 JC6      -0.304000
      8 CAB        -12.0030    -3.9130    28.5200 c2         1 JC6      -0.148400
      9 CAC        -12.3740    -3.7540    29.9830 c5         1 JC6      -0.047200
     10 CAD        -12.7960    -2.2400    30.1400 c5         1 JC6      -0.036000
     11 CAE        -13.5370    -2.0910    28.7650 c5         1 JC6      -0.088400
     12 CAF        -13.7360    -2.0880    31.3700 c6         1 JC6      -0.064400
     13 CAG        -14.1170    -0.6310    31.6900 c6         1 JC6      -0.062400
     14 CAH        -12.8100     0.1850    32.0210 c6         1 JC6      -0.006700
     15 CAI        -13.0570     1.5760    32.7380 c6         1 JC6      -0.164000
     16 CAJ        -13.7970     1.3920    34.1040 c3         1 JC6      -0.062100
     17 CAK        -13.9790     2.6230    31.8380 c          1 JC6       0.725000
     18 OAM        -15.1650     2.3470    31.5990 o          1 JC6      -0.735000
     19 OAL        -13.6310     3.8090    31.7240 o          1 JC6      -0.735000
     20 CAN        -11.6180     2.1760    33.0480 c6         1 JC6      -0.038400
     21 CAO        -10.6220     2.3020    31.8430 c6         1 JC6      -0.065400
     22 CAP        -10.4390     0.9410    31.1280 c6         1 JC6      -0.065400
     23 CAQ        -11.8290     0.2440    30.7420 c6         1 JC6      -0.015000
     24 CAR        -12.4520     1.0860    29.5700 c3         1 JC6      -0.080100
     25 CAS        -11.5340    -1.2750    30.3120 c6         1 JC6      -0.038700
     26 CAT        -10.5460    -1.4540    29.0920 c6         1 JC6      -0.061400
     27 CAU        -11.2390    -1.6510    27.7100 c6         1 JC6      -0.054400
     28 CAV        -12.4290    -2.6330    27.8170 c5         1 JC6       0.221200
     29 O1         -12.9780    -2.9020    26.4960 os         1 JC6      -0.432000
     30 O5         -13.4580    -4.9750    25.5520 os         1 JC6      -0.463000
     31 O6         -12.3790    -7.6520    25.2300 oh         1 JC6      -0.707000
     32 O4         -16.5970    -6.6560    24.4100 oh         1 JC6      -0.724000
     33 O3         -17.4940    -4.0240    24.7180 oh         1 JC6      -0.747000
     34 O2         -15.8490    -2.2320    26.4380 os         1 JC6      -0.442000
     35 CBI        -16.6230    -1.2650    25.7050 c6         1 JC6       0.384300
     36 OBL        -15.9300    -0.0070    25.7180 os         1 JC6      -0.440000
     37 CBM        -16.5630     1.0150    24.9050 c6         1 JC6       0.148300
     38 CBR        -15.6540     2.2900    24.9300 c3         1 JC6       0.167600
     39 OBS        -15.3970     2.7940    26.2560 oh         1 JC6      -0.697000
     40 CBN        -18.0120     1.2930    25.4230 c6         1 JC6       0.147300
     41 OBO        -18.7130     2.2400    24.5880 oh         1 JC6      -0.716000
     42 CBP        -18.8150    -0.0440    25.4860 c6         1 JC6       0.170300
     43 OBQ        -20.1270     0.1860    26.0290 oh         1 JC6      -0.637000
     44 CBJ        -18.0470    -1.1060    26.3260 c6         1 JC6       0.086300
     45 OBK        -18.7750    -2.3670    26.3680 oh         1 JC6      -0.744000
     46 H1         -14.2950    -4.3070    27.3360 h2         1 JC6       0.048700
     47 H2         -14.9330    -2.8970    24.6840 h1         1 JC6       0.074700
     48 H3         -16.5750    -4.8580    26.3860 h1         1 JC6       0.048700
     49 H4         -15.3150    -5.2160    23.6220 h1         1 JC6       0.053700
     50 H5         -14.6430    -6.4970    26.3420 h1         1 JC6       0.058700
     51 H6         -13.3620    -6.8390    23.5730 h1         1 JC6       0.031700
     52 H7         -14.2700    -8.0740    24.4540 h1         1 JC6       0.031700
     53 H8         -11.0370    -5.8070    28.5980 ha         1 JC6       0.165000
     54 H9         -11.0640    -4.9780    26.9370 ha         1 JC6       0.165000
     55 H10        -13.2080    -4.4260    30.2210 hc         1 JC6       0.043700
     56 H11        -11.5490    -4.0340    30.6490 hc         1 JC6       0.043700
     57 H14        -14.6530    -2.6720    31.2110 hc         1 JC6       0.022700
     58 H15        -13.2520    -2.5330    32.2510 hc         1 JC6       0.022700
     59 H16        -14.7450    -0.2260    30.8690 hc         1 JC6       0.060200
     60 H17        -14.7760    -0.6560    32.5660 hc         1 JC6       0.060200
     61 H18        -12.2750    -0.4150    32.7710 hc         1 JC6       0.000700
     62 H19        -13.8360     2.3390    34.6570 hc         1 JC6       0.015367
     63 H20        -14.8320     1.0580    33.9800 hc         1 JC6       0.015367
     64 H21        -13.2870     0.6610    34.7440 hc         1 JC6       0.015367
     65 H23        -11.1340     1.5490    33.8100 hc         1 JC6       0.018200
     66 H24        -11.7240     3.1610    33.5220 hc         1 JC6       0.018200
     67 H25         -9.6480     2.6560    32.2080 hc         1 JC6       0.035200
     68 H26        -10.9710     3.0690    31.1410 hc         1 JC6       0.035200
     69 H27         -9.8650     0.2780    31.7900 hc         1 JC6       0.013700
     70 H28         -9.8140     1.1100    30.2440 hc         1 JC6       0.013700
     71 H29        -12.4700     2.1550    29.7890 hc         1 JC6       0.039033
     72 H30        -11.8660     0.9990    28.6520 hc         1 JC6       0.039033
     73 H31        -13.4850     0.8190    29.3430 hc         1 JC6       0.039033
     74 H32        -10.9900    -1.6890    31.1730 hc         1 JC6       0.030700
     75 H33         -9.9250    -2.3390    29.2870 hc         1 JC6       0.032700
     76 H34         -9.8220    -0.6370    29.0130 hc         1 JC6       0.032700
     77 H35        -10.5050    -2.0400    26.9910 hc         1 JC6       0.048200
     78 H36        -11.5880    -0.6970    27.3000 hc         1 JC6       0.048200
     79 H37        -11.9460    -8.3010    24.6280 ho         1 JC6       0.497000
     80 H38        -17.4440    -6.1620    24.2770 ho         1 JC6       0.521000
     81 H39        -17.9810    -3.4120    25.3510 ho         1 JC6       0.536000
     82 H40        -16.7300    -1.5930    24.6600 h2         1 JC6       0.030700
     83 H41        -16.6120     0.6530    23.8670 h1         1 JC6       0.033700
     84 H42        -14.7050     2.0320    24.4410 h1         1 JC6       0.024700
     85 H43        -16.1280     3.0680    24.3160 h1         1 JC6       0.024700
     86 H44        -14.7730     3.5500    26.1600 ho         1 JC6       0.517000
     87 H45        -17.9290     1.6850    26.4490 h1         1 JC6       0.095700
     88 H46        -19.6650     2.1450    24.8350 ho         1 JC6       0.518000
     89 H47        -18.9090    -0.4320    24.4600 h1         1 JC6       0.039700
     90 H48        -20.5500    -0.7000    26.0830 ho         1 JC6       0.446000
     91 H49        -17.9110    -0.7090    27.3440 h1         1 JC6       0.089700
     92 H50        -19.1160    -2.4740    27.2920 ho         1 JC6       0.518000
     93 H12        -13.8380    -1.0760    28.5080 hc         1 JC6       0.063700
     94 H13        -14.4500    -2.6940    28.7480 hc         1 JC6       0.063700
@<TRIPOS>BOND
     1     1     2 1   
     2     1    29 1   
     3     1    30 1   
     4     1    46 1   
     5     2     3 1   
     6     2    34 1   
     7     2    47 1   
     8     3     4 1   
     9     3    33 1   
    10     3    48 1   
    11     4     5 1   
    12     4    32 1   
    13     4    49 1   
    14     5     6 1   
    15     5    30 1   
    16     5    50 1   
    17     6    31 1   
    18     6    51 1   
    19     6    52 1   
    20     7     8 2   
    21     7    53 1   
    22     7    54 1   
    23     8     9 1   
    24     8    28 1   
    25     9    10 1   
    26     9    55 1   
    27     9    56 1   
    28    10    11 1   
    29    10    12 1   
    30    10    25 1   
    31    11    28 1   
    32    11    93 1   
    33    11    94 1   
    34    12    13 1   
    35    12    57 1   
    36    12    58 1   
    37    13    14 1   
    38    13    59 1   
    39    13    60 1   
    40    14    15 1   
    41    14    23 1   
    42    14    61 1   
    43    15    16 1   
    44    15    17 1   
    45    15    20 1   
    46    16    62 1   
    47    16    63 1   
    48    16    64 1   
    49    17    18 1   
    50    17    19 1   
    51    20    21 1   
    52    20    65 1   
    53    20    66 1   
    54    21    22 1   
    55    21    67 1   
    56    21    68 1   
    57    22    23 1   
    58    22    69 1   
    59    22    70 1   
    60    23    24 1   
    61    23    25 1   
    62    24    71 1   
    63    24    72 1   
    64    24    73 1   
    65    25    26 1   
    66    25    74 1   
    67    26    27 1   
    68    26    75 1   
    69    26    76 1   
    70    27    28 1   
    71    27    77 1   
    72    27    78 1   
    73    28    29 1   
    74    31    79 1   
    75    32    80 1   
    76    33    81 1   
    77    34    35 1   
    78    35    36 1   
    79    35    44 1   
    80    35    82 1   
    81    36    37 1   
    82    37    38 1   
    83    37    40 1   
    84    37    83 1   
    85    38    39 1   
    86    38    84 1   
    87    38    85 1   
    88    39    86 1   
    89    40    41 1   
    90    40    42 1   
    91    40    87 1   
    92    41    88 1   
    93    42    43 1   
    94    42    44 1   
    95    42    89 1   
    96    43    90 1   
    97    44    45 1   
    98    44    91 1   
    99    45    92 1   
@<TRIPOS>SUBSTRUCTURE
     1 JC6         1 TEMP              0 ****  ****    0 ROOT
