@<TRIPOS>MOLECULE
JC7
   61    63     1     0     0
SMALL
abcg2


@<TRIPOS>ATOM
      1 C10          0.0200    -4.4880     0.2680 ca         1 JC7      -0.093000
      2 C17          1.3550    -0.9660     0.8150 cp         1 JC7      -0.030000
      3 C26          2.1910     0.5780     2.4550 ca         1 JC7      -0.104000
      4 C28         -2.4330     1.3290     0.3220 c6         1 JC7       0.087700
      5 C03         -4.4160     0.0220    -1.2880 c6         1 JC7       0.146300
      6 O04         -3.0410    -0.3150    -1.3230 os         1 JC7      -0.450000
      7 C05         -2.4150    -0.1440    -0.0910 c6         1 JC7       0.389300
      8 C07         -0.7780    -1.8510    -0.0740 ca         1 JC7       0.132100
      9 C08         -1.6400    -2.8870    -0.4230 ca         1 JC7      -0.143000
     10 C09         -1.2360    -4.1980    -0.2380 ca         1 JC7      -0.088000
     11 C11          0.8830    -3.4500     0.5980 ca         1 JC7      -0.158300
     12 C12          2.2430    -3.7720     1.1480 c3         1 JC7       0.358300
     13 F13          2.3710    -3.3920     2.4280 f          1 JC7      -0.111333
     14 F14          2.5040    -5.0830     1.1140 f          1 JC7      -0.111333
     15 F15          3.2230    -3.1700     0.4640 f          1 JC7      -0.111333
     16 C16          0.4920    -2.1180     0.4440 cp         1 JC7      -0.018000
     17 C18          2.0920    -0.3090    -0.1600 ca         1 JC7      -0.102000
     18 C19          2.8900     0.7790     0.1730 ca         1 JC7       0.242000
     19 N20          3.6590     1.4110    -0.8380 nu         1 JC7      -0.866100
     20 S21          3.3060     2.9790    -1.2860 s6         1 JC7       1.183100
     21 O22          4.1160     3.2300    -2.4660 o          1 JC7      -0.531500
     22 C23          1.5890     2.9890    -1.7390 c3         1 JC7      -0.377100
     23 O24          3.4750     3.8220    -0.1150 o          1 JC7      -0.531500
     24 C25          2.9520     1.2190     1.4900 ca         1 JC7      -0.081000
     25 C27          1.3910    -0.5060     2.1250 ca         1 JC7      -0.091000
     26 C31         -0.5410     2.5510     3.3510 c3         1 JC7      -0.181100
     27 O32         -0.3870     3.1500     1.0430 o          1 JC7      -0.590100
     28 C33         -3.8820     1.8270     0.3190 c6         1 JC7       0.163300
     29 O34         -3.8650     3.1910     0.6270 oh         1 JC7      -0.619000
     30 C35         -4.5650     1.5190    -1.0170 c6         1 JC7       0.110300
     31 O36         -3.9670     2.2990    -2.0220 oh         1 JC7      -0.681000
     32 H1           0.3140    -5.5200     0.3900 ha         1 JC7       0.136000
     33 H2           2.2330     0.9220     3.4800 ha         1 JC7       0.117000
     34 H3          -1.8480     1.8990    -0.4030 h1         1 JC7       0.136700
     35 H4          -5.2920    -2.1010    -3.5230 ho         1 JC7       0.511000
     36 H7          -4.9130    -0.5210    -0.4670 h1         1 JC7       0.047700
     37 H8          -2.9210    -0.7560     0.6780 h2         1 JC7       0.022700
     38 H9          -2.6080    -2.6830    -0.8610 ha         1 JC7       0.148000
     39 H10         -1.9050    -5.0040    -0.5070 ha         1 JC7       0.123000
     40 H11          2.0480    -0.6470    -1.1890 ha         1 JC7       0.120000
     41 H12          3.8090     0.8320    -1.6580 hn         1 JC7       0.485000
     42 H13          0.9790     2.7270    -0.8760 h1         1 JC7       0.110367
     43 H14          1.3440     3.9970    -2.0700 h1         1 JC7       0.110367
     44 H15          1.4330     2.2820    -2.5510 h1         1 JC7       0.110367
     45 H16          3.5940     2.0430     1.7640 ha         1 JC7       0.150000
     46 H17          0.7990    -0.9940     2.8880 ha         1 JC7       0.116000
     47 H19         -0.7290     1.6390     3.9160 hc         1 JC7       0.061033
     48 H20          0.5050     2.8260     3.4630 hc         1 JC7       0.061033
     49 H21         -1.1450     3.3460     3.7930 hc         1 JC7       0.061033
     50 H22         -4.4340     1.2590     1.0850 h1         1 JC7       0.020700
     51 H23         -4.7640     3.4740     0.8180 ho         1 JC7       0.443000
     52 H24         -5.6350     1.7470    -0.9140 h1         1 JC7       0.035700
     53 H25         -4.6080     2.4540    -2.7210 ho         1 JC7       0.503000
     54 O06         -1.0890    -0.5410    -0.2180 os         1 JC7      -0.316100
     55 N29         -1.8290     1.5000     1.6140 ns         1 JC7      -0.498900
     56 C02         -5.0390    -0.4230    -2.5900 c3         1 JC7       0.169600
     57 C30         -0.8900     2.4280     1.8900 c          1 JC7       0.618100
     58 O01         -4.9780    -1.8270    -2.6560 oh         1 JC7      -0.713000
     59 H5          -4.5130     0.0460    -3.4300 h1         1 JC7       0.032200
     60 H6          -6.0750    -0.0590    -2.6110 h1         1 JC7       0.032200
     61 H18         -2.2290     0.9930     2.3880 hn         1 JC7       0.303500
@<TRIPOS>BOND
     1     1    10 ar  
     2     1    11 ar  
     3     1    32 1   
     4     2    16 1   
     5     2    17 ar  
     6     2    25 ar  
     7     3    24 ar  
     8     3    25 ar  
     9     3    33 1   
    10     4     7 1   
    11     4    28 1   
    12     4    34 1   
    13     4    55 1   
    14     5     6 1   
    15     5    30 1   
    16     5    36 1   
    17     5    56 1   
    18     6     7 1   
    19     7    37 1   
    20     7    54 1   
    21     8     9 ar  
    22     8    16 ar  
    23     8    54 1   
    24     9    10 ar  
    25     9    38 1   
    26    10    39 1   
    27    11    12 1   
    28    11    16 ar  
    29    12    13 1   
    30    12    14 1   
    31    12    15 1   
    32    17    18 ar  
    33    17    40 1   
    34    18    19 1   
    35    18    24 ar  
    36    19    20 1   
    37    19    41 1   
    38    20    21 2   
    39    20    22 1   
    40    20    23 2   
    41    22    42 1   
    42    22    43 1   
    43    22    44 1   
    44    24    45 1   
    45    25    46 1   
    46    26    47 1   
    47    26    48 1   
    48    26    49 1   
    49    26    57 1   
    50    27    57 2   
    51    28    29 1   
    52    28    30 1   
    53    28    50 1   
    54    29    51 1   
    55    30    31 1   
    56    30    52 1   
    57    31    53 1   
    58    35    58 1   
    59    55    57 1   
    60    55    61 1   
    61    56    58 1   
    62    56    59 1   
    63    56    60 1   
@<TRIPOS>SUBSTRUCTURE
     1 JC7         1 TEMP              0 ****  ****    0 ROOT
