@<TRIPOS>MOLECULE
JC7
   61    63     1     0     0
SMALL
No Charge or Current Charge


@<TRIPOS>ATOM
      1 C10         -0.0470    -4.5400     0.4260 ca         1 JC7      -0.093000
      2 C17          1.3380    -0.9830     0.7630 cp         1 JC7      -0.030000
      3 C26          2.4830     0.4960     2.3400 ca         1 JC7      -0.104000
      4 C28         -2.7900     1.3640     0.2770 c6         1 JC7       0.087700
      5 C03         -4.7220    -0.2160    -1.2620 c6         1 JC7       0.146300
      6 O04         -3.2960    -0.4720    -1.2650 os         1 JC7      -0.450000
      7 C05         -2.6650    -0.1640    -0.0050 c6         1 JC7       0.389300
      8 C07         -0.9110    -1.8890     0.0880 ca         1 JC7       0.132100
      9 C08         -1.8070    -2.9560    -0.1300 ca         1 JC7      -0.143000
     10 C09         -1.3700    -4.2760     0.0400 ca         1 JC7      -0.088000
     11 C11          0.8710    -3.4860     0.6520 ca         1 JC7      -0.158300
     12 C12          2.3180    -3.8190     1.0680 c3         1 JC7       0.358300
     13 F13          2.5530    -3.4940     2.3590 f          1 JC7      -0.111333
     14 F14          2.6150    -5.1340     0.9440 f          1 JC7      -0.111333
     15 F15          3.2300    -3.1580     0.3180 f          1 JC7      -0.111333
     16 C16          0.4290    -2.1360     0.4910 cp         1 JC7      -0.018000
     17 C18          1.9300    -0.2620    -0.3000 ca         1 JC7      -0.102000
     18 C19          2.7890     0.8260    -0.0630 ca         1 JC7       0.242000
     19 N20          3.3480     1.4810    -1.1640 nu         1 JC7      -0.866100
     20 S21          3.9660     3.0180    -1.2890 s6         1 JC7       1.183100
     21 O22          4.1600     3.2300    -2.7230 o          1 JC7      -0.531500
     22 C23          2.6660     4.0900    -0.7210 c3         1 JC7      -0.377100
     23 O24          5.1000     3.0910    -0.3650 o          1 JC7      -0.531500
     24 C25          3.0690     1.1940     1.2710 ca         1 JC7      -0.081000
     25 C27          1.6200    -0.5810     2.0870 ca         1 JC7      -0.091000
     26 C31         -0.3250     2.5250     3.0250 c3         1 JC7      -0.181100
     27 O32         -0.1540     2.5010     0.6220 o          1 JC7      -0.590100
     28 C33         -4.3060     1.7400     0.2940 c6         1 JC7       0.163300
     29 O34         -4.4850     3.1510     0.4840 oh         1 JC7      -0.619000
     30 C35         -4.9960     1.3100    -1.0380 c6         1 JC7       0.110300
     31 O36         -4.4880     2.1330    -2.1150 oh         1 JC7      -0.681000
     32 H1           0.2540    -5.5780     0.5480 ha         1 JC7       0.136000
     33 H2           2.6990     0.7890     3.3650 ha         1 JC7       0.117000
     34 H3          -2.3160     1.8860    -0.5660 h1         1 JC7       0.136700
     35 H4          -5.4830    -2.4380    -3.6340 ho         1 JC7       0.511000
     36 H7          -5.1730    -0.7770    -0.4300 h1         1 JC7       0.047700
     37 H8          -3.1670    -0.7150     0.8050 h2         1 JC7       0.022700
     38 H9          -2.8340    -2.7850    -0.4370 ha         1 JC7       0.148000
     39 H10         -2.0590    -5.1010    -0.1290 ha         1 JC7       0.123000
     40 H11          1.7130    -0.5620    -1.3210 ha         1 JC7       0.120000
     41 H12          3.0030     1.2450    -2.0850 hn         1 JC7       0.485000
     42 H13          2.4550     3.8380     0.3220 h1         1 JC7       0.110367
     43 H14          3.0240     5.1190    -0.8180 h1         1 JC7       0.110367
     44 H15          1.7920     3.9110    -1.3550 h1         1 JC7       0.110367
     45 H16          3.7400     2.0160     1.4930 ha         1 JC7       0.150000
     46 H17          1.1670    -1.1150     2.9200 ha         1 JC7       0.116000
     47 H19         -0.3770     1.5910     3.5960 hc         1 JC7       0.061033
     48 H20          0.6840     2.9520     3.0410 hc         1 JC7       0.061033
     49 H21         -1.0450     3.1620     3.5510 hc         1 JC7       0.061033
     50 H22         -4.7850     1.1990     1.1240 h1         1 JC7       0.020700
     51 H23         -4.4410     3.5260    -0.4250 ho         1 JC7       0.443000
     52 H24         -6.0810     1.4580    -0.9310 h1         1 JC7       0.035700
     53 H25         -5.0930     2.0270    -2.8860 ho         1 JC7       0.503000
     54 O06         -1.2830    -0.5620    -0.0460 os         1 JC7      -0.316100
     55 N29         -2.1060     1.7670     1.5340 ns         1 JC7      -0.498900
     56 C02         -5.3410    -0.7770    -2.5840 c3         1 JC7       0.169600
     57 C30         -0.8280     2.2660     1.6120 c          1 JC7       0.618100
     58 O01         -5.1360    -2.1950    -2.7430 oh         1 JC7      -0.713000
     59 H5          -4.8960    -0.2390    -3.4320 h1         1 JC7       0.032200
     60 H6          -6.4160    -0.5530    -2.5800 h1         1 JC7       0.032200
     61 H18         -2.5970     1.6450     2.4110 hn         1 JC7       0.303500
@<TRIPOS>BOND
     1     1    10 ar  
     2     1    11 ar  
     3     1    32 1   
     4     2    16 1   
     5     2    17 ar  
     6     2    25 ar  
     7     3    24 ar  
     8     3    25 ar  
     9     3    33 1   
    10     4     7 1   
    11     4    28 1   
    12     4    34 1   
    13     4    55 1   
    14     5     6 1   
    15     5    30 1   
    16     5    36 1   
    17     5    56 1   
    18     6     7 1   
    19     7    37 1   
    20     7    54 1   
    21     8     9 ar  
    22     8    16 ar  
    23     8    54 1   
    24     9    10 ar  
    25     9    38 1   
    26    10    39 1   
    27    11    12 1   
    28    11    16 ar  
    29    12    13 1   
    30    12    14 1   
    31    12    15 1   
    32    17    18 ar  
    33    17    40 1   
    34    18    19 1   
    35    18    24 ar  
    36    19    20 1   
    37    19    41 1   
    38    20    21 2   
    39    20    22 1   
    40    20    23 2   
    41    22    42 1   
    42    22    43 1   
    43    22    44 1   
    44    24    45 1   
    45    25    46 1   
    46    26    47 1   
    47    26    48 1   
    48    26    49 1   
    49    26    57 1   
    50    27    57 2   
    51    28    29 1   
    52    28    30 1   
    53    28    50 1   
    54    29    51 1   
    55    30    31 1   
    56    30    52 1   
    57    31    53 1   
    58    35    58 1   
    59    55    57 1   
    60    55    61 1   
    61    56    58 1   
    62    56    59 1   
    63    56    60 1   
@<TRIPOS>SUBSTRUCTURE
     1 JC7         1 TEMP              0 ****  ****    0 ROOT
