@<TRIPOS>MOLECULE
JCA
   67    71     1     0     0
SMALL
bcc


@<TRIPOS>ATOM
      1 N1         -11.8030   -27.8450    10.3060 nb         1 JCA      -0.703000
      2 N3          -8.1120   -26.1150    10.4680 nv         1 JCA      -0.975500
      3 C4          -9.3410   -26.6470    10.4100 ca         1 JCA       0.720200
      4 C5         -10.7320   -29.8840     9.6530 cc         1 JCA       0.325300
      5 C6         -11.7870   -31.7710     9.2640 cd         1 JCA       0.697300
      6 C7          -9.6490   -30.6320     9.3180 cd         1 JCA      -0.178400
      7 C8         -12.7280   -33.9670     8.6990 ca         1 JCA       0.178600
      8 C10        -11.7400   -36.1480     8.9930 ca         1 JCA       0.092600
      9 C13        -13.4970   -34.4130     7.6200 ca         1 JCA      -0.128300
     10 C15         -9.8790   -36.8270    10.4870 c          1 JCA       0.687700
     11 C17         -9.7680   -39.2910    11.1020 ca         1 JCA      -0.090500
     12 C20         -7.1580   -38.9580    11.9640 ca         1 JCA      -0.129000
     13 C21         -7.8610   -37.8820    11.4520 ca         1 JCA      -0.090500
     14 C22         -7.0150   -41.3780    12.6750 c3         1 JCA       0.211100
     15 C24         -3.8110   -41.5420    10.7510 c6         1 JCA       0.163300
     16 C26         -4.8660   -42.2690    13.2630 c6         1 JCA       0.165300
     17 C1         -10.6640   -28.4630    10.0360 ca         1 JCA       0.678000
     18 C2         -11.6900   -26.5550    10.6430 ca         1 JCA       0.462200
     19 C3         -10.4940   -25.8920    10.7140 ca         1 JCA      -0.449600
     20 N2          -9.4480   -27.9300    10.0700 nb         1 JCA      -0.799000
     21 N4         -11.9360   -30.5370     9.6240 nc         1 JCA      -0.686000
     22 S1         -10.1360   -32.2370     8.9340 ss         1 JCA      -0.198300
     23 N5         -12.8280   -32.6260     9.1040 nu         1 JCA      -0.756300
     24 C9         -11.8790   -34.8220     9.3960 ca         1 JCA      -0.172000
     25 C11        -12.5050   -36.6070     7.9210 ca         1 JCA      -0.198000
     26 C12        -13.3720   -35.7520     7.2660 ca         1 JCA      -0.081000
     27 C14        -14.4050   -33.4860     6.8690 c3         1 JCA      -0.043800
     28 N6         -10.9060   -37.0710     9.6300 ns         1 JCA      -0.470100
     29 C16         -9.1740   -38.0360    11.0050 ca         1 JCA      -0.158600
     30 O1          -9.5310   -35.7070    10.8180 o          1 JCA      -0.571100
     31 C18         -9.0600   -40.3660    11.6190 ca         1 JCA      -0.129000
     32 C19         -7.7500   -40.2160    12.0570 ca         1 JCA      -0.058300
     33 N7          -5.5970   -41.3610    12.4010 n3         1 JCA      -0.724600
     34 C23         -5.3010   -41.6470    11.0090 c6         1 JCA       0.165300
     35 N8          -3.0750   -42.4440    11.6130 n3         1 JCA      -0.717600
     36 C25         -3.3760   -42.1630    13.0020 c6         1 JCA       0.163300
     37 C27         -1.6550   -42.3940    11.3550 c3         1 JCA       0.153100
     38 H1          -7.3220   -26.6510    10.1530 hn         1 JCA       0.439300
     39 H2          -7.9790   -25.1300    10.6160 hn         1 JCA       0.439300
     40 H3          -8.6130   -30.3380     9.2890 h4         1 JCA       0.190000
     41 H4         -10.7960   -39.4530    10.8010 ha         1 JCA       0.142000
     42 H5          -6.1350   -38.8250    12.2890 ha         1 JCA       0.143500
     43 H6          -7.3840   -36.9130    11.3930 ha         1 JCA       0.142000
     44 H7          -7.4910   -42.3210    12.3580 h1         1 JCA       0.042700
     45 H8          -7.1490   -41.3240    13.7600 h1         1 JCA       0.042700
     46 H10         -3.6110   -41.8000     9.7080 h1         1 JCA       0.038450
     47 H11         -5.1870   -43.3150    13.1200 h1         1 JCA       0.039700
     48 H12         -5.0640   -42.0100    14.3060 h1         1 JCA       0.039700
     49 H13        -12.6140   -26.0320    10.8660 h4         1 JCA       0.019100
     50 H14        -10.4370   -24.8490    10.9890 ha         1 JCA       0.145000
     51 H15        -13.7350   -32.1840     9.0720 hn         1 JCA       0.457800
     52 H16        -11.3540   -34.4530    10.2620 ha         1 JCA       0.178000
     53 H17        -12.4230   -37.6380     7.5980 ha         1 JCA       0.130000
     54 H18        -13.9540   -36.1330     6.4350 ha         1 JCA       0.132000
     55 H19        -15.2340   -33.1320     7.4860 hc         1 JCA       0.044367
     56 H20        -13.8710   -32.6040     6.5130 hc         1 JCA       0.044367
     57 H21        -14.8370   -33.9870     6.0040 hc         1 JCA       0.044367
     58 H22        -11.0180   -38.0220     9.3120 hn         1 JCA       0.320500
     59 H23         -9.5410   -41.3350    11.6850 ha         1 JCA       0.143500
     60 H25         -5.8210   -40.9310    10.3690 h1         1 JCA       0.039700
     61 H26         -5.6530   -42.6530    10.7240 h1         1 JCA       0.039700
     62 H28         -2.8510   -42.8830    13.6360 h1         1 JCA       0.038450
     63 H29         -3.0290   -41.1570    13.2980 h1         1 JCA       0.038450
     64 H30         -1.1350   -43.1190    11.9830 h1         1 JCA       0.031033
     65 H31         -1.4540   -42.6480    10.3130 h1         1 JCA       0.031033
     66 H32         -1.2150   -41.4040    11.5510 h1         1 JCA       0.031033
     67 H9          -3.4920   -40.4930    10.8920 h1         1 JCA       0.038450
@<TRIPOS>BOND
     1     1    17 ar  
     2     1    18 ar  
     3     2     3 1   
     4     2    38 1   
     5     2    39 1   
     6     3    19 ar  
     7     3    20 ar  
     8     4     6 2   
     9     4    17 1   
    10     4    21 1   
    11     5    21 2   
    12     5    22 1   
    13     5    23 1   
    14     6    22 1   
    15     6    40 1   
    16     7     9 ar  
    17     7    23 1   
    18     7    24 ar  
    19     8    24 ar  
    20     8    25 ar  
    21     8    28 1   
    22     9    26 ar  
    23     9    27 1   
    24    10    28 1   
    25    10    29 1   
    26    10    30 2   
    27    11    29 ar  
    28    11    31 ar  
    29    11    41 1   
    30    12    13 ar  
    31    12    32 ar  
    32    12    42 1   
    33    13    29 ar  
    34    13    43 1   
    35    14    32 1   
    36    14    33 1   
    37    14    44 1   
    38    14    45 1   
    39    15    34 1   
    40    15    35 1   
    41    15    46 1   
    42    15    67 1   
    43    16    33 1   
    44    16    36 1   
    45    16    47 1   
    46    16    48 1   
    47    17    20 ar  
    48    18    19 ar  
    49    18    49 1   
    50    19    50 1   
    51    23    51 1   
    52    24    52 1   
    53    25    26 ar  
    54    25    53 1   
    55    26    54 1   
    56    27    55 1   
    57    27    56 1   
    58    27    57 1   
    59    28    58 1   
    60    31    32 ar  
    61    31    59 1   
    62    33    34 1   
    63    34    60 1   
    64    34    61 1   
    65    35    36 1   
    66    35    37 1   
    67    36    62 1   
    68    36    63 1   
    69    37    64 1   
    70    37    65 1   
    71    37    66 1   
@<TRIPOS>SUBSTRUCTURE
     1 JCA         1 TEMP              0 ****  ****    0 ROOT
