@<TRIPOS>MOLECULE
JCA
   67    71     1     0     0
SMALL
No Charge or Current Charge


@<TRIPOS>ATOM
      1 N1         -12.3300   -27.4790     9.6690 nb         1 JCA      -0.177000
      2 N3          -9.1150   -25.1860    10.7320 nv         1 JCA      -1.085900
      3 C4         -10.2030   -25.9120    10.3820 ca         1 JCA       0.391900
      4 C5         -10.8870   -29.4320     9.6530 cc         1 JCA       0.260000
      5 C6         -11.4270   -31.5020     9.2100 cd         1 JCA       0.697300
      6 C7          -9.6390   -29.9940     9.8230 cd         1 JCA      -0.240000
      7 C8         -12.2720   -33.8060     8.5770 ca         1 JCA       0.317000
      8 C10        -11.3610   -36.0190     9.1160 ca         1 JCA       0.000000
      9 C13        -13.1560   -34.3950     7.6440 ca         1 JCA      -0.128300
     10 C15         -9.4230   -36.6670    10.6790 c          1 JCA       0.620700
     11 C17         -9.2530   -39.2140    11.0100 ca         1 JCA      -0.072500
     12 C20         -7.0520   -38.8860    12.7200 ca         1 JCA      -0.111000
     13 C21         -7.6690   -37.7610    12.1470 ca         1 JCA      -0.072500
     14 C22         -6.8500   -41.3970    13.0700 c3         1 JCA       0.211100
     15 C24         -3.9980   -42.1510    10.5490 c6         1 JCA       0.163300
     16 C26         -4.7820   -42.7430    13.2830 c6         1 JCA       0.165300
     17 C1         -11.0790   -27.9750     9.8530 ca         1 JCA       0.152000
     18 C2         -12.5110   -26.1560     9.8490 ca         1 JCA       0.133900
     19 C3         -11.4500   -25.3160    10.2140 ca         1 JCA      -0.301000
     20 N2         -10.0030   -27.2240    10.2070 nb         1 JCA      -0.273000
     21 N4         -11.9050   -30.2860     9.2890 nc         1 JCA      -0.686000
     22 S1          -9.7020   -31.7190     9.5040 ss         1 JCA      -0.053400
     23 N5         -12.3090   -32.4260     8.7790 nu         1 JCA      -0.949900
     24 C9         -11.3950   -34.6230     9.3160 ca         1 JCA      -0.154000
     25 C11        -12.2360   -36.5900     8.1790 ca         1 JCA      -0.180000
     26 C12        -13.1280   -35.7890     7.4510 ca         1 JCA      -0.063000
     27 C14        -14.1380   -33.5530     6.8290 c3         1 JCA      -0.043800
     28 N6         -10.5000   -36.8970     9.8310 ns         1 JCA      -0.144000
     29 C16         -8.7790   -37.9050    11.2820 ca         1 JCA      -0.158600
     30 O1          -8.9950   -35.5460    10.9310 o          1 JCA      -0.571100
     31 C18         -8.6310   -40.3350    11.5870 ca         1 JCA      -0.111000
     32 C19         -7.5270   -40.1800    12.4450 ca         1 JCA      -0.058300
     33 N7          -5.4830   -41.6450    12.5500 n3         1 JCA      -0.724600
     34 C23         -5.4490   -41.9110    11.0770 c6         1 JCA       0.165300
     35 N8          -3.2980   -43.2490    11.2840 n3         1 JCA      -0.717600
     36 C25         -3.3300   -42.9810    12.7540 c6         1 JCA       0.163300
     37 C27         -1.9320   -43.4980    10.7770 c3         1 JCA       0.153100
     38 H1          -8.1980   -25.6170    10.6400 hn         1 JCA       0.494500
     39 H2          -9.1510   -24.1720    10.6510 hn         1 JCA       0.494500
     40 H3          -8.7090   -29.5150    10.1010 h4         1 JCA       0.172000
     41 H4         -10.1030   -39.3850    10.3530 ha         1 JCA       0.124000
     42 H5          -6.1960   -38.7530    13.3780 ha         1 JCA       0.125500
     43 H6          -7.2760   -36.7730    12.3790 ha         1 JCA       0.124000
     44 H7          -7.4790   -42.2830    12.9070 h1         1 JCA       0.042700
     45 H8          -6.8080   -41.2360    14.1560 h1         1 JCA       0.042700
     46 H10         -4.0500   -42.3840     9.4750 h1         1 JCA       0.038450
     47 H11         -5.3470   -43.6830    13.1850 h1         1 JCA       0.039700
     48 H12         -4.7290   -42.5110    14.3570 h1         1 JCA       0.039700
     49 H13        -13.5180   -25.7690     9.6990 h4         1 JCA       0.019100
     50 H14        -11.6000   -24.2510    10.3600 ha         1 JCA       0.127000
     51 H15        -13.1470   -31.9590     8.4500 hn         1 JCA       0.513000
     52 H16        -10.7710   -34.1660    10.0700 ha         1 JCA       0.160000
     53 H17        -12.2320   -37.6660     8.0150 ha         1 JCA       0.112000
     54 H18        -13.7990   -36.2570     6.7330 ha         1 JCA       0.114000
     55 H19        -14.8700   -33.0590     7.4810 hc         1 JCA       0.044367
     56 H20        -13.6150   -32.7770     6.2570 hc         1 JCA       0.044367
     57 H21        -14.7000   -34.1620     6.1110 hc         1 JCA       0.044367
     58 H22        -10.7180   -37.8740     9.6960 hn         1 JCA       0.154000
     59 H23         -9.0090   -41.3300    11.3620 ha         1 JCA       0.125500
     60 H25         -5.8810   -41.0660    10.5220 h1         1 JCA       0.039700
     61 H26         -6.0580   -42.7960    10.8390 h1         1 JCA       0.039700
     62 H28         -2.8900   -43.8250    13.3050 h1         1 JCA       0.038450
     63 H29         -2.7240   -42.0930    12.9900 h1         1 JCA       0.038450
     64 H30         -1.4710   -44.3420    11.3050 h1         1 JCA       0.031033
     65 H31         -1.9550   -43.7400     9.7060 h1         1 JCA       0.031033
     66 H32         -1.2950   -42.6140    10.9160 h1         1 JCA       0.031033
     67 H9          -3.4330   -41.2120    10.6460 h1         1 JCA       0.038450
@<TRIPOS>BOND
     1     1    17 ar  
     2     1    18 ar  
     3     2     3 1   
     4     2    38 1   
     5     2    39 1   
     6     3    19 ar  
     7     3    20 ar  
     8     4     6 2   
     9     4    17 1   
    10     4    21 1   
    11     5    21 2   
    12     5    22 1   
    13     5    23 1   
    14     6    22 1   
    15     6    40 1   
    16     7     9 ar  
    17     7    23 1   
    18     7    24 ar  
    19     8    24 ar  
    20     8    25 ar  
    21     8    28 1   
    22     9    26 ar  
    23     9    27 1   
    24    10    28 1   
    25    10    29 1   
    26    10    30 2   
    27    11    29 ar  
    28    11    31 ar  
    29    11    41 1   
    30    12    13 ar  
    31    12    32 ar  
    32    12    42 1   
    33    13    29 ar  
    34    13    43 1   
    35    14    32 1   
    36    14    33 1   
    37    14    44 1   
    38    14    45 1   
    39    15    34 1   
    40    15    35 1   
    41    15    46 1   
    42    15    67 1   
    43    16    33 1   
    44    16    36 1   
    45    16    47 1   
    46    16    48 1   
    47    17    20 ar  
    48    18    19 ar  
    49    18    49 1   
    50    19    50 1   
    51    23    51 1   
    52    24    52 1   
    53    25    26 ar  
    54    25    53 1   
    55    26    54 1   
    56    27    55 1   
    57    27    56 1   
    58    27    57 1   
    59    28    58 1   
    60    31    32 ar  
    61    31    59 1   
    62    33    34 1   
    63    34    60 1   
    64    34    61 1   
    65    35    36 1   
    66    35    37 1   
    67    36    62 1   
    68    36    63 1   
    69    37    64 1   
    70    37    65 1   
    71    37    66 1   
@<TRIPOS>SUBSTRUCTURE
     1 JCA         1 TEMP              0 ****  ****    0 ROOT
