@<TRIPOS>MOLECULE
JCB
   32    34     1     0     0
SMALL
No Charge or Current Charge


@<TRIPOS>ATOM
      1 C1          -1.3250    -1.0840    -1.6720 ca         1 JCB      -0.118000
      2 C3          -2.4660    -1.0360    -2.5040 ca         1 JCB      -0.091000
      3 C5          -2.5740    -0.0550    -3.5190 ca         1 JCB      -0.129000
      4 C7          -1.5440     0.8890    -3.7090 ca         1 JCB      -0.066000
      5 C9          -0.4300     0.8090    -2.8650 ca         1 JCB      -0.086800
      6 C10         -0.3070    -0.1370    -1.8830 ca         1 JCB      -0.023200
      7 N11          0.9050     0.0440    -1.2090 na         1 JCB      -0.204900
      8 C13          1.5880     1.1550    -1.7760 cc         1 JCB      -0.146100
      9 C15          0.7590     1.6090    -2.7900 cd         1 JCB      -0.207200
     10 O21          1.2140    -2.3010    -0.1330 o          1 JCB      -0.524000
     11 O24          2.9230    -0.4250     0.3470 o          1 JCB      -0.524000
     12 C28         -1.0520     0.5200     3.7090 ca         1 JCB      -0.010300
     13 S6           1.5430    -0.8930     0.1410 sy         1 JCB       1.185700
     14 C29         -1.2690    -0.7480     3.1390 ca         1 JCB      -0.132500
     15 C31         -0.4850    -1.1890     2.0590 ca         1 JCB      -0.002500
     16 C33          0.5310    -0.3580     1.5400 ca         1 JCB      -0.310500
     17 C35          0.7510     0.9130     2.1100 ca         1 JCB      -0.002500
     18 C37         -0.0380     1.3450     3.1900 ca         1 JCB      -0.132500
     19 HB          -1.2510    -1.8380    -0.8930 ha         1 JCB       0.133000
     20 HC          -3.2670    -1.7570    -2.3630 ha         1 JCB       0.114000
     21 H5          -3.4580    -0.0270    -4.1540 ha         1 JCB       0.114000
     22 H4          -1.6130     1.6530    -4.4810 ha         1 JCB       0.117000
     23 HA           2.5570     1.5080    -1.4280 h4         1 JCB       0.238000
     24 H1           0.9820     2.4570    -3.4340 ha         1 JCB       0.207000
     25 H2          -1.4460     0.7000     5.8330 hc         1 JCB       0.051367
     26 H10         -2.0130     2.0810     4.8790 hc         1 JCB       0.051367
     27 H11         -2.9080     0.5570     4.8420 hc         1 JCB       0.051367
     28 H29         -2.0470    -1.3970     3.5340 ha         1 JCB       0.120000
     29 H13         -0.6740    -2.1750     1.6350 ha         1 JCB       0.135000
     30 H3           1.5280     1.5690     1.7190 ha         1 JCB       0.135000
     31 H37          0.1410     2.3270     3.6230 ha         1 JCB       0.120000
     32 C25         -1.9010     0.9900     4.8790 c3         1 JCB      -0.059800
@<TRIPOS>BOND
     1     1     2 ar  
     2     1     6 ar  
     3     1    19 1   
     4     2     3 ar  
     5     2    20 1   
     6     3     4 ar  
     7     3    21 1   
     8     4     5 ar  
     9     4    22 1   
    10     5     6 ar  
    11     5     9 1   
    12     6     7 1   
    13     7     8 1   
    14     7    13 1   
    15     8     9 2   
    16     8    23 1   
    17     9    24 1   
    18    10    13 2   
    19    11    13 2   
    20    12    14 ar  
    21    12    18 ar  
    22    12    32 1   
    23    13    16 1   
    24    14    15 ar  
    25    14    28 1   
    26    15    16 ar  
    27    15    29 1   
    28    16    17 ar  
    29    17    18 ar  
    30    17    30 1   
    31    18    31 1   
    32    25    32 1   
    33    26    32 1   
    34    27    32 1   
@<TRIPOS>SUBSTRUCTURE
     1 JCB         1 TEMP              0 ****  ****    0 ROOT
