@<TRIPOS>MOLECULE
JCB
   32    34     1     0     0
SMALL
abcg2


@<TRIPOS>ATOM
      1 C1          -1.2270    -1.2380    -1.6500 ca         1 JCB      -0.118000
      2 C3          -2.3920    -1.0970    -2.3850 ca         1 JCB      -0.091000
      3 C5          -2.5930    -0.0080    -3.2400 ca         1 JCB      -0.129000
      4 C7          -1.6290     0.9730    -3.3750 ca         1 JCB      -0.066000
      5 C9          -0.4510     0.8620    -2.6360 ca         1 JCB      -0.086800
      6 C10         -0.2640    -0.2440    -1.7880 ca         1 JCB      -0.023200
      7 N11          0.9910    -0.0940    -1.2030 na         1 JCB      -0.204900
      8 C13          1.5570     1.0980    -1.6510 cc         1 JCB      -0.146100
      9 C15          0.7180     1.6880    -2.5300 cd         1 JCB      -0.207200
     10 O21          1.2880    -2.3470    -0.1140 o          1 JCB      -0.524000
     11 O24          2.9180    -0.4820     0.3270 o          1 JCB      -0.524000
     12 C28         -1.0790     0.5730     3.4930 ca         1 JCB      -0.010300
     13 S6           1.5610    -0.9470     0.1330 sy         1 JCB       1.185700
     14 C29         -1.2670    -0.7050     2.9700 ca         1 JCB      -0.132500
     15 C31         -0.4650    -1.1880     1.9490 ca         1 JCB      -0.002500
     16 C33          0.5430    -0.3760     1.4470 ca         1 JCB      -0.310500
     17 C35          0.7590     0.9000     1.9530 ca         1 JCB      -0.002500
     18 C37         -0.0570     1.3650     2.9680 ca         1 JCB      -0.132500
     19 HB          -1.0890    -2.0990    -1.0120 ha         1 JCB       0.133000
     20 HC          -3.1610    -1.8530    -2.2970 ha         1 JCB       0.114000
     21 H5          -3.5150     0.0620    -3.8030 ha         1 JCB       0.114000
     22 H4          -1.7830     1.8150    -4.0380 ha         1 JCB       0.117000
     23 HA           2.5300     1.4080    -1.3100 h4         1 JCB       0.238000
     24 H1           0.9070     2.6110    -3.0560 ha         1 JCB       0.207000
     25 H2          -1.6000     0.6620     5.5660 hc         1 JCB       0.051367
     26 H10         -1.9050     2.1570     4.6920 hc         1 JCB       0.051367
     27 H11         -2.9780     0.7700     4.4820 hc         1 JCB       0.051367
     28 H29         -2.0510    -1.3380     3.3660 ha         1 JCB       0.120000
     29 H13         -0.6280    -2.1860     1.5670 ha         1 JCB       0.135000
     30 H3           1.5480     1.5330     1.5670 ha         1 JCB       0.135000
     31 H37          0.1060     2.3610     3.3610 ha         1 JCB       0.120000
     32 C25         -1.9390     1.0720     4.6130 c3         1 JCB      -0.059800
@<TRIPOS>BOND
     1     1     2 ar  
     2     1     6 ar  
     3     1    19 1   
     4     2     3 ar  
     5     2    20 1   
     6     3     4 ar  
     7     3    21 1   
     8     4     5 ar  
     9     4    22 1   
    10     5     6 ar  
    11     5     9 1   
    12     6     7 1   
    13     7     8 1   
    14     7    13 1   
    15     8     9 2   
    16     8    23 1   
    17     9    24 1   
    18    10    13 2   
    19    11    13 2   
    20    12    14 ar  
    21    12    18 ar  
    22    12    32 1   
    23    13    16 1   
    24    14    15 ar  
    25    14    28 1   
    26    15    16 ar  
    27    15    29 1   
    28    16    17 ar  
    29    17    18 ar  
    30    17    30 1   
    31    18    31 1   
    32    25    32 1   
    33    26    32 1   
    34    27    32 1   
@<TRIPOS>SUBSTRUCTURE
     1 JCB         1 TEMP              0 ****  ****    0 ROOT
