@<TRIPOS>MOLECULE
JCD
   54    56     1     0     0
SMALL
No Charge or Current Charge


@<TRIPOS>ATOM
      1 N           -2.6920    -1.9450    -2.3520 no         1 JCD       0.708200
      2 C            5.7020     0.9320    -0.8200 c3         1 JCD       0.168600
      3 O            5.6060     2.3480    -1.0730 oh         1 JCD      -0.707000
      4 C1           4.5540     0.3940     0.0970 c6         1 JCD       0.149300
      5 C10         -2.9130     1.0280     0.7690 ca         1 JCD      -0.044000
      6 C11         -3.8480    -0.0310     0.7570 ca         1 JCD      -0.164600
      7 C12         -4.9180    -0.1300     1.8280 c          1 JCD       0.715600
      8 C13         -3.7670    -0.9980    -0.2690 ca         1 JCD      -0.024000
      9 C14         -2.7720    -0.9120    -1.2700 ca         1 JCD      -0.202200
     10 C15         -1.8460     0.1540    -1.2310 ca         1 JCD      -0.038000
     11 C16          2.1280    -1.1520     0.6450 c6         1 JCD       0.086700
     12 C18         -1.2800    -2.3590     2.0240 c3         1 JCD      -0.181100
     13 C19          3.4750    -1.5400     1.3310 c6         1 JCD       0.164300
     14 C2           2.1530     0.3690     0.3130 c6         1 JCD       0.389300
     15 C20          4.6850    -1.1310     0.4340 c6         1 JCD       0.109300
     16 C3           0.4840     2.0640    -0.2520 ca         1 JCD       0.125100
     17 C4           1.3740     3.1590    -0.1850 ca         1 JCD      -0.171000
     18 C5           0.8750     4.4640    -0.0460 ca         1 JCD      -0.102000
     19 C6          -0.5080     4.6810     0.0350 ca         1 JCD      -0.138000
     20 C7          -1.3960     3.5940    -0.0250 ca         1 JCD      -0.081000
     21 C8          -0.9230     2.2670    -0.1750 cp         1 JCD      -0.025000
     22 C9          -1.9000     1.1330    -0.2130 cp         1 JCD      -0.090000
     23 N1           0.9480    -1.5270     1.4700 ns         1 JCD      -0.498900
     24 O1           3.2790     0.6580    -0.5400 os         1 JCD      -0.451000
     25 O2           0.9340     0.7610    -0.3410 os         1 JCD      -0.316100
     26 O3          -5.7100    -1.0600     1.7770 o          1 JCD      -0.709500
     27 O4          -4.9510     0.7250     2.7020 o          1 JCD      -0.709500
     28 O5          -1.8980    -1.7570    -3.2840 o          1 JCD      -0.423500
     29 O6          -3.4680    -2.9080    -2.3010 o          1 JCD      -0.423500
     30 O7          -0.2270    -2.6520    -0.1240 o          1 JCD      -0.587100
     31 O8           3.5360    -2.9500     1.5930 oh         1 JCD      -0.615000
     32 O9           4.6960    -1.9630    -0.7500 oh         1 JCD      -0.675000
     33 H6           5.6760     0.3830    -1.7700 h1         1 JCD       0.026200
     34 H7           6.6610     0.7050    -0.3350 h1         1 JCD       0.026200
     35 H5           6.3150     2.5730    -1.7180 ho         1 JCD       0.502000
     36 H            4.5960     0.9640     1.0370 h1         1 JCD       0.043700
     37 H12         -2.9570     1.7780     1.5560 ha         1 JCD       0.137000
     38 H14         -4.4840    -1.8180    -0.2860 ha         1 JCD       0.165000
     39 H15         -1.0740     0.2360    -1.9940 ha         1 JCD       0.145000
     40 H2           2.0720    -1.6830    -0.3150 h1         1 JCD       0.141700
     41 H17         -0.8830    -2.8360     2.9260 hc         1 JCD       0.066033
     42 H18         -1.5690    -1.3680     2.3890 hc         1 JCD       0.066033
     43 H19         -2.1390    -2.9070     1.6190 hc         1 JCD       0.066033
     44 H3           3.5470    -0.9920     2.2820 h1         1 JCD       0.018700
     45 H1           2.2480     0.9330     1.2540 h2         1 JCD       0.021700
     46 H4           5.6120    -1.2840     1.0060 h1         1 JCD       0.022700
     47 H8           2.4480     3.0130    -0.2470 ha         1 JCD       0.132000
     48 H9           1.5620     5.3070     0.0010 ha         1 JCD       0.101000
     49 H10         -0.8940     5.6920     0.1450 ha         1 JCD       0.108000
     50 H11         -2.4660     3.7790     0.0380 ha         1 JCD       0.128000
     51 H16          0.9190    -1.2230     2.4360 hn         1 JCD       0.303500
     52 H20          3.8930    -3.3360     0.7620 ho         1 JCD       0.431000
     53 H21          5.5750    -1.8600    -1.1810 ho         1 JCD       0.494000
     54 C17         -0.1570    -2.2020     1.0090 c          1 JCD       0.615100
@<TRIPOS>BOND
     1     1     9 1   
     2     1    28 1   
     3     1    29 1   
     4     2     3 1   
     5     2     4 1   
     6     2    33 1   
     7     2    34 1   
     8     3    35 1   
     9     4    15 1   
    10     4    24 1   
    11     4    36 1   
    12     5     6 ar  
    13     5    22 ar  
    14     5    37 1   
    15     6     7 1   
    16     6     8 ar  
    17     7    26 1   
    18     7    27 1   
    19     8     9 ar  
    20     8    38 1   
    21     9    10 ar  
    22    10    22 ar  
    23    10    39 1   
    24    11    13 1   
    25    11    14 1   
    26    11    23 1   
    27    11    40 1   
    28    12    41 1   
    29    12    42 1   
    30    12    43 1   
    31    12    54 1   
    32    13    15 1   
    33    13    31 1   
    34    13    44 1   
    35    14    24 1   
    36    14    25 1   
    37    14    45 1   
    38    15    32 1   
    39    15    46 1   
    40    16    17 ar  
    41    16    21 ar  
    42    16    25 1   
    43    17    18 ar  
    44    17    47 1   
    45    18    19 ar  
    46    18    48 1   
    47    19    20 ar  
    48    19    49 1   
    49    20    21 ar  
    50    20    50 1   
    51    21    22 1   
    52    23    51 1   
    53    23    54 1   
    54    30    54 2   
    55    31    52 1   
    56    32    53 1   
@<TRIPOS>SUBSTRUCTURE
     1 JCD         1 TEMP              0 ****  ****    0 ROOT
