@<TRIPOS>MOLECULE
JCD
   54    56     1     0     0
SMALL
bcc


@<TRIPOS>ATOM
      1 N           -2.4970    -2.0460    -2.0120 no         1 JCD       0.328200
      2 C            5.5690     0.9720    -0.7360 c3         1 JCD       0.145400
      3 O            5.4990     2.3740    -0.6430 oh         1 JCD      -0.584800
      4 C1           4.4550     0.3790     0.0950 c6         1 JCD       0.126100
      5 C10         -2.8400     1.1070     0.7160 ca         1 JCD      -0.062000
      6 C11         -3.7730     0.0780     0.7550 ca         1 JCD      -0.164600
      7 C12         -4.8930     0.0780     1.7930 c          1 JCD       0.926200
      8 C13         -3.6590    -0.9650    -0.1510 ca         1 JCD      -0.042000
      9 C14         -2.6270    -0.9430    -1.0740 ca         1 JCD      -0.202200
     10 C15         -1.7070     0.0910    -1.1350 ca         1 JCD      -0.056000
     11 C16          2.0310    -1.1020     0.4810 c6         1 JCD       0.086700
     12 C18         -1.1410    -2.5140     1.9710 c3         1 JCD      -0.181100
     13 C19          3.3470    -1.6020     1.0790 c6         1 JCD       0.141100
     14 C2           2.1180     0.4140     0.2770 c6         1 JCD       0.342900
     15 C20          4.5320    -1.1420     0.2250 c6         1 JCD       0.086100
     16 C3           0.5280     2.0900    -0.2730 ca         1 JCD       0.125100
     17 C4           1.3890     3.1800    -0.2020 ca         1 JCD      -0.189000
     18 C5           0.8720     4.4620    -0.0790 ca         1 JCD      -0.120000
     19 C6          -0.4990     4.6650    -0.0380 ca         1 JCD      -0.156000
     20 C7          -1.3500     3.5720    -0.1100 ca         1 JCD      -0.099000
     21 C8          -0.8600     2.2710    -0.2200 cp         1 JCD      -0.025000
     22 C9          -1.8060     1.1330    -0.2200 cp         1 JCD      -0.090000
     23 N1           0.9060    -1.4390     1.3060 ns         1 JCD      -0.565900
     24 O1           3.2250     0.7410    -0.5050 os         1 JCD      -0.404600
     25 O2           0.9740     0.8130    -0.4030 os         1 JCD      -0.292900
     26 O3          -5.7000    -0.8670     1.7340 o          1 JCD      -0.814800
     27 O4          -4.8930     1.0220     2.6030 o          1 JCD      -0.814800
     28 O5          -1.7250    -1.9270    -2.9340 o          1 JCD      -0.233500
     29 O6          -3.1750    -3.0310    -1.8290 o          1 JCD      -0.233500
     30 O7          -0.1540    -2.7620    -0.1930 o          1 JCD      -0.587100
     31 O8           3.2640    -2.9940     1.2000 oh         1 JCD      -0.552800
     32 O9           4.4640    -1.7840    -1.0230 oh         1 JCD      -0.552800
     33 H6           5.4760     0.6300    -1.7740 h1         1 JCD       0.026200
     34 H7           6.5210     0.5840    -0.3500 h1         1 JCD       0.026200
     35 H5           6.1470     2.7460    -1.2480 ho         1 JCD       0.403000
     36 H            4.5250     0.8040     1.1100 h1         1 JCD       0.043700
     37 H12         -2.9170     1.9000     1.4480 ha         1 JCD       0.155000
     38 H14         -4.3700    -1.7780    -0.1230 ha         1 JCD       0.183000
     39 H15         -0.9260     0.0840    -1.8780 ha         1 JCD       0.163000
     40 H2           1.8750    -1.5660    -0.4950 h1         1 JCD       0.141700
     41 H17         -0.8880    -3.4320     2.5040 hc         1 JCD       0.066033
     42 H18         -1.2240    -1.7120     2.7030 hc         1 JCD       0.066033
     43 H19         -2.1110    -2.6600     1.5020 hc         1 JCD       0.066033
     44 H3           3.4740    -1.1300     2.0670 h1         1 JCD       0.018700
     45 H1           2.1780     0.9290     1.2530 h2         1 JCD       0.021700
     46 H4           5.4600    -1.3960     0.7570 h1         1 JCD       0.022700
     47 H8           2.4610     3.0400    -0.2590 ha         1 JCD       0.150000
     48 H9           1.5510     5.3030    -0.0260 ha         1 JCD       0.119000
     49 H10         -0.9050     5.6640     0.0460 ha         1 JCD       0.126000
     50 H11         -2.4210     3.7270    -0.0830 ha         1 JCD       0.146000
     51 H16          0.8930    -1.0900     2.2520 hn         1 JCD       0.303500
     52 H20          3.9920    -3.2960     1.7510 ho         1 JCD       0.392000
     53 H21          5.3500    -1.8570    -1.3880 ho         1 JCD       0.395000
     54 C17         -0.0980    -2.2490     0.9150 c          1 JCD       0.682100
@<TRIPOS>BOND
     1     1     9 1   
     2     1    28 1   
     3     1    29 1   
     4     2     3 1   
     5     2     4 1   
     6     2    33 1   
     7     2    34 1   
     8     3    35 1   
     9     4    15 1   
    10     4    24 1   
    11     4    36 1   
    12     5     6 ar  
    13     5    22 ar  
    14     5    37 1   
    15     6     7 1   
    16     6     8 ar  
    17     7    26 1   
    18     7    27 1   
    19     8     9 ar  
    20     8    38 1   
    21     9    10 ar  
    22    10    22 ar  
    23    10    39 1   
    24    11    13 1   
    25    11    14 1   
    26    11    23 1   
    27    11    40 1   
    28    12    41 1   
    29    12    42 1   
    30    12    43 1   
    31    12    54 1   
    32    13    15 1   
    33    13    31 1   
    34    13    44 1   
    35    14    24 1   
    36    14    25 1   
    37    14    45 1   
    38    15    32 1   
    39    15    46 1   
    40    16    17 ar  
    41    16    21 ar  
    42    16    25 1   
    43    17    18 ar  
    44    17    47 1   
    45    18    19 ar  
    46    18    48 1   
    47    19    20 ar  
    48    19    49 1   
    49    20    21 ar  
    50    20    50 1   
    51    21    22 1   
    52    23    51 1   
    53    23    54 1   
    54    30    54 2   
    55    31    52 1   
    56    32    53 1   
@<TRIPOS>SUBSTRUCTURE
     1 JCD         1 TEMP              0 ****  ****    0 ROOT
