@<TRIPOS>MOLECULE
JCE
   37    40     1     0     0
SMALL
abcg2


@<TRIPOS>ATOM
      1 C10          0.5520    -1.3250    -0.2610 ca         1 JCE      -0.033200
      2 C13          3.0550     0.8730    -0.5660 ca         1 JCE       0.312300
      3 C15          2.8120     2.3150     1.1820 ca         1 JCE       0.343900
      4 C17          4.9530     2.1260     0.1640 ca         1 JCE      -0.071000
      5 C20          1.7080    -3.1850     0.3720 cc         1 JCE      -0.237200
      6 C21         -0.5150    -0.4430    -0.3980 ca         1 JCE      -0.101000
      7 C22         -4.2430    -0.2030     0.1450 cc         1 JCE      -0.262000
      8 C02         -4.8840     1.0370    -0.0580 cc         1 JCE       0.461900
      9 N03         -4.0070     2.0060    -0.2480 nd         1 JCE      -0.576800
     10 N04         -2.8100     1.4040    -0.1720 na         1 JCE      -0.007200
     11 C05         -2.8930     0.0830     0.0620 cd         1 JCE      -0.058000
     12 C06         -1.7300    -0.7940     0.1730 ca         1 JCE      -0.017000
     13 C07         -1.8590    -2.0130     0.8740 ca         1 JCE      -0.116000
     14 C08         -0.7990    -2.8810     1.0090 ca         1 JCE      -0.065000
     15 C09          0.4350    -2.5460     0.4390 ca         1 JCE      -0.090800
     16 N11          1.8290    -1.2440    -0.7440 na         1 JCE      -0.083700
     17 C12          2.4040    -0.1390    -1.4750 c3         1 JCE       0.032300
     18 N14          2.2760     1.4280     0.3560 nb         1 JCE      -0.657000
     19 C16          4.1440     2.7020     1.1290 ca         1 JCE      -0.155000
     20 C18          4.4000     1.1910    -0.6990 ca         1 JCE      -0.150000
     21 C19          2.5180    -2.3580    -0.3490 cd         1 JCE      -0.158100
     22 H1           2.1480     2.7460     1.9240 h4         1 JCE       0.024100
     23 H2           5.9980     2.3950     0.0850 ha         1 JCE       0.122000
     24 H3           1.9850    -4.1390     0.7920 ha         1 JCE       0.206000
     25 H4          -0.3980     0.4820    -0.9490 ha         1 JCE       0.114000
     26 H5          -4.7030    -1.1640     0.3020 ha         1 JCE       0.144000
     27 H6          -6.8050     0.5120    -0.3320 hn         1 JCE       0.439000
     28 H7          -6.5090     2.1300    -0.5060 hn         1 JCE       0.439000
     29 H9          -2.8110    -2.2630     1.3250 ha         1 JCE       0.118000
     30 H10         -0.9210    -3.8090     1.5540 ha         1 JCE       0.116000
     31 H11          1.6170     0.3390    -2.0620 h1         1 JCE       0.068200
     32 H12          3.1270    -0.5370    -2.1860 h1         1 JCE       0.068200
     33 H13          4.5290     3.4330     1.8270 ha         1 JCE       0.128000
     34 H14          5.0040     0.7130    -1.4600 ha         1 JCE       0.123000
     35 H15          3.5530    -2.4840    -0.6290 h4         1 JCE       0.209000
     36 H8          -1.9770     1.9640    -0.2310 hn         1 JCE       0.372000
     37 N01         -6.2430     1.2880    -0.0170 nv         1 JCE      -1.003900
@<TRIPOS>BOND
     1     1     6 ar  
     2     1    15 ar  
     3     1    16 1   
     4     2    17 1   
     5     2    18 ar  
     6     2    20 ar  
     7     3    18 ar  
     8     3    19 ar  
     9     3    22 1   
    10     4    19 ar  
    11     4    20 ar  
    12     4    23 1   
    13     5    15 1   
    14     5    21 2   
    15     5    24 1   
    16     6    12 ar  
    17     6    25 1   
    18     7     8 1   
    19     7    11 2   
    20     7    26 1   
    21     8     9 2   
    22     8    37 1   
    23     9    10 1   
    24    10    11 1   
    25    10    36 1   
    26    11    12 1   
    27    12    13 ar  
    28    13    14 ar  
    29    13    29 1   
    30    14    15 ar  
    31    14    30 1   
    32    16    17 1   
    33    16    21 1   
    34    17    31 1   
    35    17    32 1   
    36    19    33 1   
    37    20    34 1   
    38    21    35 1   
    39    27    37 1   
    40    28    37 1   
@<TRIPOS>SUBSTRUCTURE
     1 JCE         1 TEMP              0 ****  ****    0 ROOT
