@<TRIPOS>MOLECULE
JCE
   37    40     1     0     0
SMALL
No Charge or Current Charge


@<TRIPOS>ATOM
      1 C10          0.7960    -1.5030    -0.5910 ca         1 JCE      -0.033200
      2 C13          2.8430     0.9580    -0.6880 ca         1 JCE       0.312300
      3 C15          2.5780     3.2180    -0.2110 ca         1 JCE       0.343900
      4 C17          3.5670     1.7900     1.4770 ca         1 JCE      -0.071000
      5 C20          1.7920    -3.5080    -0.3000 cc         1 JCE      -0.237200
      6 C21         -0.2100    -0.5250    -0.5350 ca         1 JCE      -0.101000
      7 C22         -3.7850     0.0190     0.6640 cc         1 JCE      -0.262000
      8 C02         -4.4050     1.2510     0.4940 cc         1 JCE       0.461900
      9 N03         -3.6900     2.1660    -0.0870 nd         1 JCE      -0.576800
     10 N04         -2.4920     1.4770    -0.3190 na         1 JCE      -0.007200
     11 C05         -2.5320     0.1460     0.1380 cd         1 JCE      -0.058000
     12 C06         -1.4530    -0.8580     0.0580 ca         1 JCE      -0.017000
     13 C07         -1.6460    -2.1680     0.5720 ca         1 JCE      -0.116000
     14 C08         -0.6200    -3.1330     0.5000 ca         1 JCE      -0.065000
     15 C09          0.5900    -2.7580    -0.0910 ca         1 JCE      -0.090800
     16 N11          2.0800    -1.4040    -1.1140 na         1 JCE      -0.083700
     17 C12          2.6540    -0.1750    -1.6920 c3         1 JCE       0.032300
     18 N14          2.4310     2.1890    -1.0790 nb         1 JCE      -0.657000
     19 C16          3.1370     3.0620     1.0690 ca         1 JCE      -0.155000
     20 C18          3.4160     0.7220     0.5790 ca         1 JCE      -0.150000
     21 C19          2.6980    -2.6610    -0.9290 cd         1 JCE      -0.158100
     22 H1           2.2380     4.1940    -0.5530 h4         1 JCE       0.024100
     23 H2           4.0050     1.6360     2.4620 ha         1 JCE       0.122000
     24 H3           1.9790    -4.5440    -0.0230 ha         1 JCE       0.206000
     25 H4          -0.0300     0.4670    -0.9390 ha         1 JCE       0.114000
     26 H5          -4.2340    -0.8510     1.1270 ha         1 JCE       0.144000
     27 H6          -6.2610     0.7120     1.1030 hn         1 JCE       0.439000
     28 H7          -6.1030     2.3430     0.5380 hn         1 JCE       0.439000
     29 H9          -2.5910    -2.4450     1.0300 ha         1 JCE       0.118000
     30 H10         -0.7650    -4.1360     0.8940 ha         1 JCE       0.116000
     31 H11          2.0000     0.1580    -2.5070 h1         1 JCE       0.068200
     32 H12          3.6280    -0.4180    -2.1310 h1         1 JCE       0.068200
     33 H13          3.2330     3.9200     1.7280 ha         1 JCE       0.128000
     34 H14          3.7360    -0.2780     0.8590 ha         1 JCE       0.123000
     35 H15          3.7190    -2.8540    -1.2490 h4         1 JCE       0.209000
     36 H8          -1.7000     1.9290    -0.7750 hn         1 JCE       0.372000
     37 N01         -5.6600     1.5010     0.8900 nv         1 JCE      -1.003900
@<TRIPOS>BOND
     1     1     6 ar  
     2     1    15 ar  
     3     1    16 1   
     4     2    17 1   
     5     2    18 ar  
     6     2    20 ar  
     7     3    18 ar  
     8     3    19 ar  
     9     3    22 1   
    10     4    19 ar  
    11     4    20 ar  
    12     4    23 1   
    13     5    15 1   
    14     5    21 2   
    15     5    24 1   
    16     6    12 ar  
    17     6    25 1   
    18     7     8 1   
    19     7    11 2   
    20     7    26 1   
    21     8     9 2   
    22     8    37 1   
    23     9    10 1   
    24    10    11 1   
    25    10    36 1   
    26    11    12 1   
    27    12    13 ar  
    28    13    14 ar  
    29    13    29 1   
    30    14    15 ar  
    31    14    30 1   
    32    16    17 1   
    33    16    21 1   
    34    17    31 1   
    35    17    32 1   
    36    19    33 1   
    37    20    34 1   
    38    21    35 1   
    39    27    37 1   
    40    28    37 1   
@<TRIPOS>SUBSTRUCTURE
     1 JCE         1 TEMP              0 ****  ****    0 ROOT
