@<TRIPOS>MOLECULE
JCF
   25    26     1     0     0
SMALL
abcg2


@<TRIPOS>ATOM
      1 O1           3.7110    -1.4620     0.6380 o          1 JCF      -0.604100
      2 C10          3.3160    -0.4030     0.1690 c          1 JCF       0.615700
      3 N1           4.1490     0.5340    -0.3080 nt         1 JCF      -0.600000
      4 C6           1.8530    -0.0860     0.0990 ca         1 JCF      -0.110600
      5 C5           0.9700    -1.1380     0.0970 ca         1 JCF      -0.074000
      6 C7           1.3880     1.2480     0.0570 ca         1 JCF      -0.152000
      7 C8           0.0430     1.5100    -0.0010 ca         1 JCF       0.165100
      8 O           -0.4210     2.7640    -0.0280 oh         1 JCF      -0.526100
      9 C9          -0.8850     0.4340    -0.0220 ca         1 JCF       0.210000
     10 C4          -0.4140    -0.8910     0.0260 ca         1 JCF      -0.058000
     11 C3          -1.4010    -1.9050     0.0050 ca         1 JCF      -0.053000
     12 C2          -2.7180    -1.5600    -0.0570 ca         1 JCF      -0.160000
     13 N           -2.1930     0.7630    -0.0810 nb         1 JCF      -0.703000
     14 C1          -3.0900    -0.1900    -0.0990 ca         1 JCF       0.383300
     15 C           -4.5350     0.1860    -0.1660 c3         1 JCF      -0.151400
     16 H11N         5.1410     0.3560    -0.3180 hn         1 JCF       0.315000
     17 H12N         3.8280     1.3280    -0.8340 hn         1 JCF       0.315000
     18 H5           1.3280    -2.1590     0.1390 ha         1 JCF       0.141000
     19 H7           2.0770     2.0820     0.1010 ha         1 JCF       0.130000
     20 H           -1.3910     2.7110    -0.0610 ho         1 JCF       0.499000
     21 H3          -1.1020    -2.9460     0.0390 ha         1 JCF       0.126000
     22 H2          -3.4890    -2.3190    -0.0730 ha         1 JCF       0.126000
     23 HC1         -5.0830    -0.2270     0.6830 hc         1 JCF       0.055700
     24 HC2         -4.6560     1.2670    -0.1660 hc         1 JCF       0.055700
     25 HC3         -4.9970    -0.2160    -1.0690 hc         1 JCF       0.055700
@<TRIPOS>BOND
     1     1     2 2   
     2     2     3 1   
     3     2     4 1   
     4     3    16 1   
     5     3    17 1   
     6     4     5 ar  
     7     4     6 ar  
     8     5    10 ar  
     9     5    18 1   
    10     6     7 ar  
    11     6    19 1   
    12     7     8 1   
    13     7     9 ar  
    14     8    20 1   
    15     9    10 ar  
    16     9    13 ar  
    17    10    11 ar  
    18    11    12 ar  
    19    11    21 1   
    20    12    14 ar  
    21    12    22 1   
    22    13    14 ar  
    23    14    15 1   
    24    15    23 1   
    25    15    24 1   
    26    15    25 1   
@<TRIPOS>SUBSTRUCTURE
     1 JCF         1 TEMP              0 ****  ****    0 ROOT
