@<TRIPOS>MOLECULE
JCF
   25    26     1     0     0
SMALL
No Charge or Current Charge


@<TRIPOS>ATOM
      1 O1           3.7710    -1.5840     0.1450 o          1 JCF      -0.604100
      2 C10          3.3600    -0.4410     0.0280 c          1 JCF       0.615700
      3 N1           4.2540     0.5680    -0.0620 nt         1 JCF      -0.600000
      4 C6           1.8820    -0.1010    -0.0190 ca         1 JCF      -0.110600
      5 C5           0.9260    -1.1380     0.0740 ca         1 JCF      -0.074000
      6 C7           1.4200     1.2300    -0.1540 ca         1 JCF      -0.152000
      7 C8           0.0440     1.5070    -0.1940 ca         1 JCF       0.165100
      8 O           -0.3830     2.7990    -0.3260 oh         1 JCF      -0.526100
      9 C9          -0.9160     0.4730    -0.1010 ca         1 JCF       0.210000
     10 C4          -0.4540    -0.8580     0.0340 ca         1 JCF      -0.058000
     11 C3          -1.3910    -1.9020     0.1270 ca         1 JCF      -0.053000
     12 C2          -2.7560    -1.5810     0.0830 ca         1 JCF      -0.160000
     13 N           -2.2440     0.7730    -0.1430 nb         1 JCF      -0.703000
     14 C1          -3.1400    -0.2360    -0.0510 ca         1 JCF       0.383300
     15 C           -4.6010     0.1640    -0.1080 c3         1 JCF      -0.151400
     16 H11N         5.2390     0.3550    -0.0320 hn         1 JCF       0.315000
     17 H12N         3.9380     1.5200    -0.1590 hn         1 JCF       0.315000
     18 H5           1.2570    -2.1700     0.1790 ha         1 JCF       0.141000
     19 H7           2.1140     2.0630    -0.2300 ha         1 JCF       0.130000
     20 H           -1.3670     2.7390    -0.3290 ho         1 JCF       0.499000
     21 H3          -1.0710    -2.9370     0.2310 ha         1 JCF       0.126000
     22 H2          -3.5080    -2.3620     0.1500 ha         1 JCF       0.126000
     23 HC1         -5.2490    -0.6360     0.2690 hc         1 JCF       0.055700
     24 HC2         -4.7930     1.0580     0.4970 hc         1 JCF       0.055700
     25 HC3         -4.9030     0.3810    -1.1390 hc         1 JCF       0.055700
@<TRIPOS>BOND
     1     1     2 2   
     2     2     3 1   
     3     2     4 1   
     4     3    16 1   
     5     3    17 1   
     6     4     5 ar  
     7     4     6 ar  
     8     5    10 ar  
     9     5    18 1   
    10     6     7 ar  
    11     6    19 1   
    12     7     8 1   
    13     7     9 ar  
    14     8    20 1   
    15     9    10 ar  
    16     9    13 ar  
    17    10    11 ar  
    18    11    12 ar  
    19    11    21 1   
    20    12    14 ar  
    21    12    22 1   
    22    13    14 ar  
    23    14    15 1   
    24    15    23 1   
    25    15    24 1   
    26    15    25 1   
@<TRIPOS>SUBSTRUCTURE
     1 JCF         1 TEMP              0 ****  ****    0 ROOT
