@<TRIPOS>MOLECULE
JCG
   59    61     1     0     0
SMALL
No Charge or Current Charge


@<TRIPOS>ATOM
      1 C10          1.4420     1.2570    -1.2380 c          1 JCG       0.553200
      2 C12         -2.2110     0.4080    -0.1520 ca         1 JCG      -0.146800
      3 C13         -3.0700     1.1890    -0.9710 ca         1 JCG       0.230000
      4 C15         -4.4600     1.0010    -0.9460 ca         1 JCG      -0.200000
      5 C16         -5.0350     0.0380    -0.1130 ca         1 JCG       0.183100
      6 C01          6.4280     0.8870    -1.2820 c3         1 JCG      -0.088100
      7 C02          5.9260    -0.1410    -0.2020 c3         1 JCG      -0.294000
      8 C03          4.3500    -0.2010    -0.2230 c3         1 JCG      -0.081400
      9 C06          1.4070     0.4660     1.0680 cc         1 JCG      -0.036400
     10 C07          0.0410     0.2810     1.0460 cd         1 JCG      -0.288000
     11 C08         -0.7290     0.5560    -0.1440 cd         1 JCG       0.083800
     12 C09         -0.0080     1.0500    -1.2160 cc         1 JCG      -0.301200
     13 C18         -7.0930    -1.0570     0.6860 c3         1 JCG       0.211900
     14 C19         -8.5870    -0.9420     0.4150 ca         1 JCG      -0.101300
     15 C20         -9.3820    -0.0590     1.1730 ca         1 JCG      -0.082500
     16 C21        -10.7610     0.0470     0.9230 ca         1 JCG      -0.114000
     17 C22        -11.3550    -0.7290    -0.0870 ca         1 JCG      -0.095000
     18 C23        -10.5670    -1.6090    -0.8480 ca         1 JCG      -0.114000
     19 C24         -9.1880    -1.7160    -0.5990 ca         1 JCG      -0.082500
     20 C25         -4.2040    -0.7420     0.7110 ca         1 JCG      -0.224000
     21 C26         -2.8120    -0.5550     0.6930 ca         1 JCG      -0.029000
     22 C27          6.4680    -1.5700    -0.4510 c          1 JCG       0.604100
     23 F14         -2.5960     2.1880    -1.7470 f          1 JCG      -0.167000
     24 N05          2.1080     0.9350    -0.0390 n          1 JCG      -0.273000
     25 N29          7.3810    -1.7330    -1.4900 ns         1 JCG      -0.383400
     26 O11          2.0210     1.6710    -2.2340 o          1 JCG      -0.564000
     27 O17         -6.4070    -0.0980    -0.1350 os         1 JCG      -0.335100
     28 O28          6.0820    -2.5320     0.1970 o          1 JCG      -0.559100
     29 O30          7.7220    -3.0540    -1.9810 oh         1 JCG      -0.401100
     30 S31          6.6100     0.3600     1.4220 s6         1 JCG       1.057000
     31 H1          -5.0960     1.6190    -1.5720 ha         1 JCG       0.150000
     32 H2           6.0770     1.9040    -1.0680 hc         1 JCG       0.068033
     33 H3           7.5240     0.9420    -1.3160 hc         1 JCG       0.068033
     34 H4           6.0610     0.6240    -2.2830 hc         1 JCG       0.068033
     35 H5           4.0360    -0.5760    -1.2060 hc         1 JCG       0.076700
     36 H6           3.9930    -0.9510     0.4950 hc         1 JCG       0.076700
     37 H7           3.8190     1.5040     1.0370 h1         1 JCG       0.080200
     38 H8           3.8910     1.8880    -0.6790 h1         1 JCG       0.080200
     39 H9           2.0450     0.2810     1.9270 h4         1 JCG       0.196000
     40 H10         -0.4460    -0.0570     1.9550 ha         1 JCG       0.200000
     41 H11         -0.4730     1.2750    -2.1640 ha         1 JCG       0.216000
     42 H12         -6.8990    -0.8660     1.7490 h1         1 JCG       0.043700
     43 H13         -6.7570    -2.0760     0.4540 h1         1 JCG       0.043700
     44 H14         -8.9290     0.5470     1.9560 ha         1 JCG       0.115000
     45 H15        -11.3690     0.7300     1.5120 ha         1 JCG       0.116000
     46 H16        -12.4220    -0.6460    -0.2810 ha         1 JCG       0.115000
     47 H17        -11.0250    -2.2090    -1.6320 ha         1 JCG       0.116000
     48 H18         -8.5850    -2.3980    -1.1940 ha         1 JCG       0.115000
     49 H19         -4.6160    -1.5020     1.3690 ha         1 JCG       0.123000
     50 H20         -2.2010    -1.1980     1.3210 ha         1 JCG       0.119000
     51 H21          5.9220    -1.6400     2.5220 h1         1 JCG       0.108367
     52 H22          6.1530    -0.2630     3.6540 h1         1 JCG       0.108367
     53 H23          4.6780    -0.3310     2.6280 h1         1 JCG       0.108367
     54 H24          7.5560    -0.9600    -2.1280 hn         1 JCG       0.368500
     55 H25          8.7080    -3.0540    -1.9830 ho         1 JCG       0.439000
     56 C04          3.5780     1.1190     0.0390 c3         1 JCG       0.083000
     57 C32          5.7430    -0.5740     2.6880 c3         1 JCG      -0.328100
     58 O33          8.0210    -0.0430     1.4640 o          1 JCG      -0.517000
     59 O34          6.2770     1.7730     1.6380 o          1 JCG      -0.517000
@<TRIPOS>BOND
     1     1    12 1   
     2     1    24 1   
     3     1    26 2   
     4     2     3 ar  
     5     2    11 1   
     6     2    21 ar  
     7     3     4 ar  
     8     3    23 1   
     9     4     5 ar  
    10     4    31 1   
    11     5    20 ar  
    12     5    27 1   
    13     6     7 1   
    14     6    32 1   
    15     6    33 1   
    16     6    34 1   
    17     7     8 1   
    18     7    22 1   
    19     7    30 1   
    20     8    35 1   
    21     8    36 1   
    22     8    56 1   
    23     9    10 2   
    24     9    24 1   
    25     9    39 1   
    26    10    11 1   
    27    10    40 1   
    28    11    12 2   
    29    12    41 1   
    30    13    14 1   
    31    13    27 1   
    32    13    42 1   
    33    13    43 1   
    34    14    15 ar  
    35    14    19 ar  
    36    15    16 ar  
    37    15    44 1   
    38    16    17 ar  
    39    16    45 1   
    40    17    18 ar  
    41    17    46 1   
    42    18    19 ar  
    43    18    47 1   
    44    19    48 1   
    45    20    21 ar  
    46    20    49 1   
    47    21    50 1   
    48    22    25 1   
    49    22    28 2   
    50    24    56 1   
    51    25    29 1   
    52    25    54 1   
    53    29    55 1   
    54    30    57 1   
    55    30    58 2   
    56    30    59 2   
    57    37    56 1   
    58    38    56 1   
    59    51    57 1   
    60    52    57 1   
    61    53    57 1   
@<TRIPOS>SUBSTRUCTURE
     1 JCG         1 TEMP              0 ****  ****    0 ROOT
