@<TRIPOS>MOLECULE
JCG
   59    61     1     0     0
SMALL
bcc


@<TRIPOS>ATOM
      1 C10          1.4030     1.0410    -1.1290 c          1 JCG       0.695700
      2 C12         -2.1990     0.4670     0.0010 ca         1 JCG      -0.146800
      3 C13         -3.0630     1.3080    -0.6950 ca         1 JCG       0.194900
      4 C15         -4.4280     1.1430    -0.7090 ca         1 JCG      -0.218000
      5 C16         -4.9930     0.0820    -0.0010 ca         1 JCG       0.183100
      6 C01          5.9150     0.7120    -1.6270 c3         1 JCG      -0.088100
      7 C02          5.6370    -0.1740    -0.4080 c3         1 JCG      -0.183200
      8 C03          4.1410    -0.1970    -0.0580 c3         1 JCG      -0.081400
      9 C06          1.3030     0.7340     1.2550 cc         1 JCG       0.013600
     10 C07         -0.0410     0.5640     1.2500 cd         1 JCG      -0.238000
     11 C08         -0.7360     0.6510     0.0140 cd         1 JCG       0.083800
     12 C09         -0.0240     0.8810    -1.1270 cc         1 JCG      -0.251200
     13 C18         -6.9700    -1.1000     0.6050 c3         1 JCG       0.188700
     14 C19         -8.4370    -0.9880     0.3210 ca         1 JCG      -0.101300
     15 C20         -9.2830    -0.3410     1.2160 ca         1 JCG      -0.100500
     16 C21        -10.6370    -0.2100     0.9370 ca         1 JCG      -0.132000
     17 C22        -11.1560    -0.7230    -0.2440 ca         1 JCG      -0.113000
     18 C23        -10.3170    -1.3690    -1.1440 ca         1 JCG      -0.132000
     19 C24         -8.9640    -1.4990    -0.8620 ca         1 JCG      -0.100500
     20 C25         -4.1660    -0.7800     0.7190 ca         1 JCG      -0.242000
     21 C26         -2.7960    -0.5700     0.7140 ca         1 JCG      -0.047000
     22 C27          6.0870    -1.6350    -0.6650 c          1 JCG       0.671100
     23 F14         -2.5570     2.3500    -1.3690 f          1 JCG      -0.131900
     24 N05          2.0060     0.9770     0.1230 n          1 JCG      -0.340000
     25 N29          7.3410    -1.7730    -1.1140 ns         1 JCG      -0.450400
     26 O11          2.0830     1.2230    -2.1370 o          1 JCG      -0.639500
     27 O17         -6.3280    -0.0220    -0.0710 os         1 JCG      -0.311900
     28 O28          5.3360    -2.5740    -0.4900 o          1 JCG      -0.559100
     29 O30          7.7930    -2.9980    -1.4860 oh         1 JCG      -0.362100
     30 S31          6.6300     0.5230     0.9730 s6         1 JCG       0.977000
     31 H1          -5.0550     1.8330    -1.2600 ha         1 JCG       0.168000
     32 H2           5.6060     1.7400    -1.4560 hc         1 JCG       0.068033
     33 H3           6.9640     0.7320    -1.9150 hc         1 JCG       0.068033
     34 H4           5.3460     0.3310    -2.4740 hc         1 JCG       0.068033
     35 H5           3.6540    -0.6640    -0.9150 hc         1 JCG       0.076700
     36 H6           3.9570    -0.8660     0.7840 hc         1 JCG       0.076700
     37 H7           3.6800     1.5310     1.1920 h1         1 JCG       0.080200
     38 H8           3.7430     1.9030    -0.5190 h1         1 JCG       0.080200
     39 H9           1.8790     0.6960     2.1690 h4         1 JCG       0.146000
     40 H10         -0.5600     0.3950     2.1810 ha         1 JCG       0.150000
     41 H11         -0.5050     0.9220    -2.0950 ha         1 JCG       0.166000
     42 H12         -6.7800    -1.0410     1.6810 h1         1 JCG       0.043700
     43 H13         -6.5780    -2.0560     0.2440 h1         1 JCG       0.043700
     44 H14         -8.8830     0.0590     2.1400 ha         1 JCG       0.133000
     45 H15        -11.2860     0.2920     1.6430 ha         1 JCG       0.134000
     46 H16        -12.2110    -0.6230    -0.4630 ha         1 JCG       0.133000
     47 H17        -10.7170    -1.7740    -2.0640 ha         1 JCG       0.134000
     48 H18         -8.3160    -2.0100    -1.5640 ha         1 JCG       0.133000
     49 H19         -4.5620    -1.6130     1.2800 ha         1 JCG       0.141000
     50 H20         -2.1680    -1.2530     1.2710 ha         1 JCG       0.137000
     51 H21          6.6440    -1.5640     2.1290 h1         1 JCG       0.108367
     52 H22          6.9420    -0.1580     3.1780 h1         1 JCG       0.108367
     53 H23          5.2870    -0.5210     2.6410 h1         1 JCG       0.108367
     54 H24          8.0010    -1.0170    -1.2170 hn         1 JCG       0.368500
     55 H25          8.1830    -3.4020    -0.6990 ho         1 JCG       0.400000
     56 C04          3.4540     1.1430     0.2030 c3         1 JCG       0.083000
     57 C32          6.3370    -0.5480     2.3610 c3         1 JCG      -0.217300
     58 O33          8.0440     0.4370     0.6050 o          1 JCG      -0.587800
     59 O34          6.1050     1.8500     1.2880 o          1 JCG      -0.587800
@<TRIPOS>BOND
     1     1    12 1   
     2     1    24 1   
     3     1    26 2   
     4     2     3 ar  
     5     2    11 1   
     6     2    21 ar  
     7     3     4 ar  
     8     3    23 1   
     9     4     5 ar  
    10     4    31 1   
    11     5    20 ar  
    12     5    27 1   
    13     6     7 1   
    14     6    32 1   
    15     6    33 1   
    16     6    34 1   
    17     7     8 1   
    18     7    22 1   
    19     7    30 1   
    20     8    35 1   
    21     8    36 1   
    22     8    56 1   
    23     9    10 2   
    24     9    24 1   
    25     9    39 1   
    26    10    11 1   
    27    10    40 1   
    28    11    12 2   
    29    12    41 1   
    30    13    14 1   
    31    13    27 1   
    32    13    42 1   
    33    13    43 1   
    34    14    15 ar  
    35    14    19 ar  
    36    15    16 ar  
    37    15    44 1   
    38    16    17 ar  
    39    16    45 1   
    40    17    18 ar  
    41    17    46 1   
    42    18    19 ar  
    43    18    47 1   
    44    19    48 1   
    45    20    21 ar  
    46    20    49 1   
    47    21    50 1   
    48    22    25 1   
    49    22    28 2   
    50    24    56 1   
    51    25    29 1   
    52    25    54 1   
    53    29    55 1   
    54    30    57 1   
    55    30    58 2   
    56    30    59 2   
    57    37    56 1   
    58    38    56 1   
    59    51    57 1   
    60    52    57 1   
    61    53    57 1   
@<TRIPOS>SUBSTRUCTURE
     1 JCG         1 TEMP              0 ****  ****    0 ROOT
