@<TRIPOS>MOLECULE
JCH
   42    45     1     0     0
SMALL
No Charge or Current Charge


@<TRIPOS>ATOM
      1 C10         -0.1600    -2.0570    -0.3860 ca         1 JCH      -0.048200
      2 C13          2.4250    -0.3580    -1.3070 ca         1 JCH      -0.155300
      3 C15          3.0830     1.9900    -1.3860 ca         1 JCH      -0.172500
      4 C20          3.0490    -0.4760    -0.0480 ca         1 JCH      -0.052500
      5 C21          1.4130    -3.7270    -0.5980 cc         1 JCH      -0.161100
      6 C22          0.4250    -4.1070     0.3010 cd         1 JCH      -0.242200
      7 C24         -4.0720     0.7730     0.9000 cc         1 JCH      -0.277000
      8 C02         -4.4890     2.0030     0.5410 cd         1 JCH       0.204000
      9 N03         -3.5510     2.4640    -0.3780 na         1 JCH      -0.038200
     10 N04         -2.5380     1.5270    -0.6020 nd         1 JCH      -0.528800
     11 C05         -2.8820     0.5160     0.1860 cc         1 JCH       0.341500
     12 C06         -2.0850    -0.7240     0.2770 ca         1 JCH      -0.109500
     13 C07         -2.4820    -1.7970     1.1290 ca         1 JCH      -0.122000
     14 C08         -1.7180    -2.9810     1.2170 ca         1 JCH      -0.072000
     15 C09         -0.5610    -3.0670     0.4400 ca         1 JCH      -0.092800
     16 N11          1.0200    -2.4390    -1.0170 na         1 JCH      -0.090700
     17 C12          1.7300    -1.5540    -1.9600 c3         1 JCH       0.134900
     18 C14          2.4500     0.8810    -1.9740 ca         1 JCH      -0.052500
     19 C16          3.7000     1.8750    -0.1310 ca         1 JCH       0.149100
     20 O17          4.3060     2.9980     0.3950 os         1 JCH      -0.342100
     21 C18          4.9640     2.9860     1.6750 c3         1 JCH       0.148900
     22 C19          3.6830     0.6330     0.5400 ca         1 JCH      -0.172500
     23 C23         -0.8970    -0.8670    -0.4920 ca         1 JCH      -0.090000
     24 H1           3.0960     2.9430    -1.9070 ha         1 JCH       0.123000
     25 H2           3.0470    -1.4270     0.4810 ha         1 JCH       0.115500
     26 H3           2.3070    -4.2310    -0.9530 h4         1 JCH       0.207000
     27 H4           0.4070    -5.0590     0.8290 ha         1 JCH       0.203000
     28 H5          -4.5580     0.1090     1.6020 ha         1 JCH       0.145000
     29 H6          -6.2010     2.3610     1.6590 hn         1 JCH       0.447500
     30 H7          -5.7220     3.6830     0.6240 hn         1 JCH       0.447500
     31 H8          -3.5680     3.3640    -0.8490 hn         1 JCH       0.367000
     32 H9          -3.3820    -1.7260     1.7310 ha         1 JCH       0.109000
     33 H10         -2.0200    -3.7980     1.8680 ha         1 JCH       0.112000
     34 H11          1.0080    -1.2010    -2.7070 h1         1 JCH       0.059700
     35 H12          2.4810    -2.1500    -2.4930 h1         1 JCH       0.059700
     36 H13          1.9770     0.9890    -2.9480 ha         1 JCH       0.115500
     37 H14          4.2600     2.7190     2.4730 h1         1 JCH       0.041367
     38 H15          5.7930     2.2660     1.6810 h1         1 JCH       0.041367
     39 H16          5.3740     3.9780     1.9010 h1         1 JCH       0.041367
     40 H17          4.1520     0.5090     1.5110 ha         1 JCH       0.123000
     41 H18         -0.5560    -0.0720    -1.1510 ha         1 JCH       0.132000
     42 N01         -5.5790     2.7220     0.9350 nv         1 JCH      -1.048000
@<TRIPOS>BOND
     1     1    15 ar  
     2     1    16 1   
     3     1    23 ar  
     4     2     4 ar  
     5     2    17 1   
     6     2    18 ar  
     7     3    18 ar  
     8     3    19 ar  
     9     3    24 1   
    10     4    22 ar  
    11     4    25 1   
    12     5     6 2   
    13     5    16 1   
    14     5    26 1   
    15     6    15 1   
    16     6    27 1   
    17     7     8 2   
    18     7    11 1   
    19     7    28 1   
    20     8     9 1   
    21     8    42 1   
    22     9    10 1   
    23     9    31 1   
    24    10    11 2   
    25    11    12 1   
    26    12    13 ar  
    27    12    23 ar  
    28    13    14 ar  
    29    13    32 1   
    30    14    15 ar  
    31    14    33 1   
    32    16    17 1   
    33    17    34 1   
    34    17    35 1   
    35    18    36 1   
    36    19    20 1   
    37    19    22 ar  
    38    20    21 1   
    39    21    37 1   
    40    21    38 1   
    41    21    39 1   
    42    22    40 1   
    43    23    41 1   
    44    29    42 1   
    45    30    42 1   
@<TRIPOS>SUBSTRUCTURE
     1 JCH         1 TEMP              0 ****  ****    0 ROOT
