@<TRIPOS>MOLECULE
JCH
   42    45     1     0     0
SMALL
bcc


@<TRIPOS>ATOM
      1 C10         -0.1440    -2.0460    -0.3810 ca         1 JCH      -0.048200
      2 C13          2.3900    -0.3740    -1.2410 ca         1 JCH      -0.155300
      3 C15          2.6850     2.0240    -1.1310 ca         1 JCH      -0.190500
      4 C20          3.2180    -0.4980    -0.1330 ca         1 JCH      -0.070500
      5 C21          1.3750    -3.6610    -0.5550 cc         1 JCH      -0.111100
      6 C22          0.4470    -4.1320     0.3270 cd         1 JCH      -0.192200
      7 C24         -4.0260     0.7840     0.8860 cc         1 JCH      -0.360300
      8 C02         -4.3900     2.0380     0.4350 cd         1 JCH       0.116300
      9 N03         -3.4790     2.3750    -0.4970 na         1 JCH      -0.038600
     10 N04         -2.5430     1.4340    -0.6860 nd         1 JCH      -0.528800
     11 C05         -2.8650     0.4620     0.1470 cc         1 JCH       0.406800
     12 C06         -2.0560    -0.7590     0.2340 ca         1 JCH      -0.109500
     13 C07         -2.4660    -1.8200     1.0690 ca         1 JCH      -0.140000
     14 C08         -1.7300    -2.9800     1.1850 ca         1 JCH      -0.090000
     15 C09         -0.5440    -3.1120     0.4560 ca         1 JCH      -0.092800
     16 N11          1.0260    -2.4100    -0.9910 na         1 JCH      -0.061400
     17 C12          1.7920    -1.5890    -1.9020 c3         1 JCH       0.105600
     18 C14          2.1340     0.9040    -1.7270 ca         1 JCH      -0.070500
     19 C16          3.5150     1.8880    -0.0180 ca         1 JCH       0.149100
     20 O17          4.0100     3.0260     0.5050 os         1 JCH      -0.318900
     21 C18          4.8820     2.9370     1.6140 c3         1 JCH       0.125700
     22 C19          3.7810     0.6130     0.4810 ca         1 JCH      -0.190500
     23 C23         -0.8820    -0.8740    -0.5000 ca         1 JCH      -0.108000
     24 H1           2.4740     3.0120    -1.5220 ha         1 JCH       0.141000
     25 H2           3.4370    -1.4790     0.2730 ha         1 JCH       0.133500
     26 H3           2.2760    -4.1290    -0.9220 h4         1 JCH       0.157000
     27 H4           0.4670    -5.0910     0.8190 ha         1 JCH       0.153000
     28 H5          -4.5270     0.2030     1.6420 ha         1 JCH       0.163000
     29 H6          -5.8910     2.6110     1.6250 hn         1 JCH       0.392300
     30 H7          -5.3030     3.8250     0.6650 hn         1 JCH       0.392300
     31 H8          -3.4450     3.2280    -1.0330 hn         1 JCH       0.316700
     32 H9          -3.3830    -1.7260     1.6360 ha         1 JCH       0.127000
     33 H10         -2.0710    -3.7770     1.8330 ha         1 JCH       0.130000
     34 H11          1.1590    -1.2870    -2.7400 h1         1 JCH       0.059700
     35 H12          2.5750    -2.2230    -2.3220 h1         1 JCH       0.059700
     36 H13          1.4870     1.0320    -2.5880 ha         1 JCH       0.133500
     37 H14          4.3970     2.4820     2.4820 h1         1 JCH       0.041367
     38 H15          5.7850     2.3700     1.3770 h1         1 JCH       0.041367
     39 H16          5.1650     3.9560     1.8670 h1         1 JCH       0.041367
     40 H17          4.4210     0.4650     1.3390 ha         1 JCH       0.141000
     41 H18         -0.5570    -0.0610    -1.1360 ha         1 JCH       0.150000
     42 N01         -5.4690     2.8320     0.7370 nv         1 JCH      -0.799200
@<TRIPOS>BOND
     1     1    15 ar  
     2     1    16 1   
     3     1    23 ar  
     4     2     4 ar  
     5     2    17 1   
     6     2    18 ar  
     7     3    18 ar  
     8     3    19 ar  
     9     3    24 1   
    10     4    22 ar  
    11     4    25 1   
    12     5     6 2   
    13     5    16 1   
    14     5    26 1   
    15     6    15 1   
    16     6    27 1   
    17     7     8 2   
    18     7    11 1   
    19     7    28 1   
    20     8     9 1   
    21     8    42 1   
    22     9    10 1   
    23     9    31 1   
    24    10    11 2   
    25    11    12 1   
    26    12    13 ar  
    27    12    23 ar  
    28    13    14 ar  
    29    13    32 1   
    30    14    15 ar  
    31    14    33 1   
    32    16    17 1   
    33    17    34 1   
    34    17    35 1   
    35    18    36 1   
    36    19    20 1   
    37    19    22 ar  
    38    20    21 1   
    39    21    37 1   
    40    21    38 1   
    41    21    39 1   
    42    22    40 1   
    43    23    41 1   
    44    29    42 1   
    45    30    42 1   
@<TRIPOS>SUBSTRUCTURE
     1 JCH         1 TEMP              0 ****  ****    0 ROOT
