@<TRIPOS>MOLECULE
JCK
   54    58     1     0     0
SMALL
bcc


@<TRIPOS>ATOM
      1 C10          3.0940     2.7200     1.1530 ca         1 JCK      -0.087000
      2 C13          0.3260     3.9690    -0.8240 cc         1 JCK      -0.106100
      3 C15         -0.4830     1.9560    -2.0820 c3         1 JCK       0.098600
      4 C17         -2.3150     1.5500    -0.3990 ca         1 JCK      -0.111000
      5 C22         -6.4130    -1.8610     1.5430 c5         1 JCK       0.156800
      6 C24         -7.5590    -1.0250    -0.4250 c5         1 JCK      -0.079400
      7 C26         -2.3140    -1.1650    -0.9160 ca         1 JCK      -0.115000
      8 C28          4.8190    -1.3900     0.5580 cc         1 JCK      -0.291300
      9 C02          4.7580    -2.7780     0.3920 cd         1 JCK       0.202300
     10 N03          3.4910    -3.0370     0.0600 na         1 JCK      -0.046600
     11 N04          2.7130    -1.9380    -0.0030 nd         1 JCK      -0.524800
     12 C05          3.4940    -0.9290     0.2910 cc         1 JCK       0.463800
     13 C06          2.9870     0.4440     0.2960 ca         1 JCK      -0.126500
     14 C07          1.9080     0.7690    -0.5160 ca         1 JCK      -0.100000
     15 C08          1.4360     2.0750    -0.4850 ca         1 JCK      -0.053200
     16 C09          2.0120     3.0690     0.3380 ca         1 JCK      -0.084800
     17 C11          3.5670     1.4250     1.1270 ca         1 JCK      -0.131000
     18 C12          1.2810     4.2720     0.1030 cd         1 JCK      -0.192200
     19 N14          0.4160     2.6540    -1.1900 na         1 JCK      -0.058400
     20 C16         -1.4290     1.0400    -1.3480 ca         1 JCK      -0.117300
     21 C18         -3.1830     0.7140     0.2790 ca         1 JCK      -0.115000
     22 C19         -3.1910    -0.6600     0.0330 ca         1 JCK      -0.073300
     23 N21         -5.4980    -1.1230     0.6900 n3         1 JCK      -0.716600
     24 C23         -7.7940    -1.4310     1.0470 c5         1 JCK      -0.079400
     25 C25         -6.0610    -1.2480    -0.6430 c5         1 JCK       0.156800
     26 C27         -1.4400    -0.3250    -1.5980 ca         1 JCK      -0.111000
     27 N30          6.9630    -0.0980     1.0780 n1         1 JCK      -0.401800
     28 H1           3.5540     3.4520     1.8050 ha         1 JCK       0.135000
     29 H2          -0.4260     4.6040    -1.2680 h4         1 JCK       0.159000
     30 H3          -1.0380     2.7120    -2.6400 h1         1 JCK       0.061700
     31 H4           0.1010     1.3930    -2.8130 h1         1 JCK       0.061700
     32 H5          -2.3270     2.6130    -0.1870 ha         1 JCK       0.131500
     33 H6          -4.0010    -2.6010     0.4450 h1         1 JCK       0.038700
     34 H7          -3.8470    -1.5560     1.8520 h1         1 JCK       0.038700
     35 H9          -6.2390    -1.6310     2.5960 h1         1 JCK       0.036200
     36 H10         -8.1530    -1.6140    -1.1230 hc         1 JCK       0.046450
     37 H11         -7.8210     0.0210    -0.5840 hc         1 JCK       0.046450
     38 H12         -2.3070    -2.2270    -1.1310 ha         1 JCK       0.137500
     39 H15          3.0860    -3.9430    -0.1200 hn         1 JCK       0.321700
     40 H16          1.4620     0.0200    -1.1570 ha         1 JCK       0.145000
     41 H17          4.3890     1.1610     1.7780 ha         1 JCK       0.137000
     42 H18          1.4440     5.2370     0.5560 ha         1 JCK       0.156000
     43 H19         -3.8720     1.1290     1.0050 ha         1 JCK       0.137500
     44 H21         -8.5210    -2.2370     1.1480 hc         1 JCK       0.046450
     45 H22         -8.1670    -0.5860     1.6270 hc         1 JCK       0.046450
     46 H23         -5.8790    -2.2550    -1.0580 h1         1 JCK       0.036200
     47 H24         -5.6150    -0.5290    -1.3320 h1         1 JCK       0.036200
     48 H25         -0.7660    -0.7440    -2.3370 ha         1 JCK       0.131500
     49 C29          5.9860    -0.6700     0.8430 cg         1 JCK       0.287800
     50 C20         -4.1270    -1.5610     0.7930 c3         1 JCK       0.214100
     51 N01          5.7350    -3.7070     0.4590 nv         1 JCK      -0.825200
     52 H8          -6.2900    -2.9510     1.4200 h1         1 JCK       0.036200
     53 H13          6.5470    -3.4690     1.0050 hn         1 JCK       0.422300
     54 H14          5.4570    -4.6700     0.5610 hn         1 JCK       0.422300
@<TRIPOS>BOND
     1     1    16 ar  
     2     1    17 ar  
     3     1    28 1   
     4     2    18 2   
     5     2    19 1   
     6     2    29 1   
     7     3    19 1   
     8     3    20 1   
     9     3    30 1   
    10     3    31 1   
    11     4    20 ar  
    12     4    21 ar  
    13     4    32 1   
    14     5    23 1   
    15     5    24 1   
    16     5    35 1   
    17     5    52 1   
    18     6    24 1   
    19     6    25 1   
    20     6    36 1   
    21     6    37 1   
    22     7    22 ar  
    23     7    26 ar  
    24     7    38 1   
    25     8     9 2   
    26     8    12 1   
    27     8    49 1   
    28     9    10 1   
    29     9    51 1   
    30    10    11 1   
    31    10    39 1   
    32    11    12 2   
    33    12    13 1   
    34    13    14 ar  
    35    13    17 ar  
    36    14    15 ar  
    37    14    40 1   
    38    15    16 ar  
    39    15    19 1   
    40    16    18 1   
    41    17    41 1   
    42    18    42 1   
    43    20    26 ar  
    44    21    22 ar  
    45    21    43 1   
    46    22    50 1   
    47    23    25 1   
    48    23    50 1   
    49    24    44 1   
    50    24    45 1   
    51    25    46 1   
    52    25    47 1   
    53    26    48 1   
    54    27    49 3   
    55    33    50 1   
    56    34    50 1   
    57    51    53 1   
    58    51    54 1   
@<TRIPOS>SUBSTRUCTURE
     1 JCK         1 TEMP              0 ****  ****    0 ROOT
