@<TRIPOS>MOLECULE
JCK
   54    58     1     0     0
SMALL
No Charge or Current Charge


@<TRIPOS>ATOM
      1 C10          3.2180     2.8920     0.9420 ca         1 JCK      -0.069000
      2 C13          0.3150     4.1450    -0.9650 cc         1 JCK      -0.156100
      3 C15         -0.4980     1.9770    -2.1120 c3         1 JCK       0.127900
      4 C17         -2.0220     1.4220    -0.1300 ca         1 JCK      -0.093000
      5 C22         -6.4350    -2.1510     1.4650 c5         1 JCK       0.156800
      6 C24         -7.5780    -0.9180    -0.3190 c5         1 JCK      -0.079400
      7 C26         -2.5680    -1.1210    -1.1860 ca         1 JCK      -0.097000
      8 C28          4.7540    -1.4340     0.7260 cc         1 JCK      -0.226000
      9 C02          4.6720    -2.7760     0.5800 cd         1 JCK       0.290000
     10 N03          3.4280    -3.0240     0.0190 na         1 JCK      -0.046200
     11 N04          2.7110    -1.8490    -0.1960 nd         1 JCK      -0.524800
     12 C05          3.5300    -0.8950     0.2360 cc         1 JCK       0.398500
     13 C06          3.0790     0.5250     0.2110 ca         1 JCK      -0.126500
     14 C07          1.9290     0.8650    -0.5610 ca         1 JCK      -0.082000
     15 C08          1.4800     2.1950    -0.5790 ca         1 JCK      -0.053200
     16 C09          2.1070     3.1630     0.1450 ca         1 JCK      -0.084800
     17 C11          3.6960     1.5640     0.9770 ca         1 JCK      -0.113000
     18 C12          1.3750     4.3800    -0.0990 cd         1 JCK      -0.242200
     19 N14          0.4050     2.7680    -1.2540 na         1 JCK      -0.087700
     20 C16         -1.4300     1.0340    -1.3500 ca         1 JCK      -0.117300
     21 C18         -2.8760     0.5420     0.5570 ca         1 JCK      -0.097000
     22 C19         -3.1530    -0.7350     0.0350 ca         1 JCK      -0.073300
     23 N21         -5.5030    -1.2830     0.7200 n3         1 JCK      -0.716600
     24 C23         -7.8030    -1.5090     1.1100 c5         1 JCK      -0.079400
     25 C25         -6.0940    -1.2500    -0.6330 c5         1 JCK       0.156800
     26 C27         -1.7140    -0.2420    -1.8740 ca         1 JCK      -0.093000
     27 N30          6.8320    -0.1680     1.5900 n1         1 JCK      -0.491000
     28 H1           3.6920     3.6750     1.5290 ha         1 JCK       0.117000
     29 H2          -0.4500     4.7990    -1.3730 h4         1 JCK       0.209000
     30 H3          -1.1070     2.6710    -2.7040 h1         1 JCK       0.061700
     31 H4           0.1160     1.4020    -2.8170 h1         1 JCK       0.061700
     32 H5          -1.8240     2.4060     0.2890 ha         1 JCK       0.113500
     33 H6          -3.9590    -2.7010     0.3810 h1         1 JCK       0.038700
     34 H7          -3.7570    -1.7230     1.8350 h1         1 JCK       0.038700
     35 H9          -6.2450    -2.1460     2.5470 h1         1 JCK       0.036200
     36 H10         -8.2540    -1.3520    -1.0640 hc         1 JCK       0.046450
     37 H11         -7.7470     0.1650    -0.3230 hc         1 JCK       0.046450
     38 H12         -2.7760    -2.1030    -1.6040 ha         1 JCK       0.119500
     39 H15          3.0550    -3.9370    -0.2240 hn         1 JCK       0.372000
     40 H16          1.4030     0.1160    -1.1470 ha         1 JCK       0.127000
     41 H17          4.5300     1.3680     1.6380 ha         1 JCK       0.119000
     42 H18          1.6130     5.3490     0.3350 ha         1 JCK       0.206000
     43 H19         -3.3280     0.8540     1.4960 ha         1 JCK       0.119500
     44 H21         -8.6150    -2.2430     1.1380 hc         1 JCK       0.046450
     45 H22         -8.0590    -0.7160     1.8220 hc         1 JCK       0.046450
     46 H23         -6.0040    -2.2260    -1.1310 h1         1 JCK       0.036200
     47 H24         -5.6320    -0.4920    -1.2800 h1         1 JCK       0.036200
     48 H25         -1.2700    -0.5570    -2.8170 ha         1 JCK       0.113500
     49 C29          5.8820    -0.7240     1.2000 cg         1 JCK       0.377000
     50 C20         -4.0810    -1.6860     0.7860 c3         1 JCK       0.214100
     51 N01          5.5660    -3.7730     0.8590 nv         1 JCK      -1.074000
     52 H8          -6.3820    -3.1910     1.1120 h1         1 JCK       0.036200
     53 H13          6.4270    -3.5610     1.3640 hn         1 JCK       0.477500
     54 H14          5.2940    -4.7550     0.7990 hn         1 JCK       0.477500
@<TRIPOS>BOND
     1     1    16 ar  
     2     1    17 ar  
     3     1    28 1   
     4     2    18 2   
     5     2    19 1   
     6     2    29 1   
     7     3    19 1   
     8     3    20 1   
     9     3    30 1   
    10     3    31 1   
    11     4    20 ar  
    12     4    21 ar  
    13     4    32 1   
    14     5    23 1   
    15     5    24 1   
    16     5    35 1   
    17     5    52 1   
    18     6    24 1   
    19     6    25 1   
    20     6    36 1   
    21     6    37 1   
    22     7    22 ar  
    23     7    26 ar  
    24     7    38 1   
    25     8     9 2   
    26     8    12 1   
    27     8    49 1   
    28     9    10 1   
    29     9    51 1   
    30    10    11 1   
    31    10    39 1   
    32    11    12 2   
    33    12    13 1   
    34    13    14 ar  
    35    13    17 ar  
    36    14    15 ar  
    37    14    40 1   
    38    15    16 ar  
    39    15    19 1   
    40    16    18 1   
    41    17    41 1   
    42    18    42 1   
    43    20    26 ar  
    44    21    22 ar  
    45    21    43 1   
    46    22    50 1   
    47    23    25 1   
    48    23    50 1   
    49    24    44 1   
    50    24    45 1   
    51    25    46 1   
    52    25    47 1   
    53    26    48 1   
    54    27    49 3   
    55    33    50 1   
    56    34    50 1   
    57    51    53 1   
    58    51    54 1   
@<TRIPOS>SUBSTRUCTURE
     1 JCK         1 TEMP              0 ****  ****    0 ROOT
