@<TRIPOS>MOLECULE
JCM
   75    79     1     0     0
SMALL
No Charge or Current Charge


@<TRIPOS>ATOM
      1 N1         -12.6490   -32.5230     9.9160 nh         1 JCM      -0.819100
      2 N3         -10.5300   -43.8150    18.0130 n3         1 JCM      -0.716600
      3 C4         -12.3140   -33.8480     9.5780 ca         1 JCM       0.253000
      4 C5         -11.8880   -34.7240    10.5910 ca         1 JCM      -0.090000
      5 C6         -11.5300   -36.0660    10.3140 cp         1 JCM      -0.033000
      6 C7         -11.0800   -36.9870    11.4060 cp         1 JCM      -0.038000
      7 C8         -11.6330   -36.9040    12.7090 ca         1 JCM      -0.096500
      8 C10        -10.2250   -38.7390    13.4850 ca         1 JCM      -0.075300
      9 C13        -10.1790   -41.4630    17.1150 c6         1 JCM       0.164300
     10 C15        -10.0890   -44.8700    18.9510 c3         1 JCM       0.153100
     11 C17        -11.0940   -43.1750    15.6220 c6         1 JCM       0.164300
     12 C20        -11.6110   -36.5030     8.9700 ca         1 JCM      -0.089000
     13 C21        -12.0310   -35.6360     7.9490 ca         1 JCM      -0.112000
     14 C22        -12.3840   -34.3050     8.2410 ca         1 JCM      -0.055300
     15 C24        -11.7690   -31.4620     9.8900 cc         1 JCM       0.720300
     16 C26        -11.1580   -27.9140    10.3400 ca         1 JCM       0.150000
     17 C28        -11.3570   -25.2720    10.8530 ca         1 JCM      -0.300000
     18 C1         -15.7720   -32.0430    12.2030 c3         1 JCM      -0.086100
     19 C2         -14.2990   -32.2900    11.8220 c3         1 JCM      -0.100400
     20 C3         -14.0620   -32.2910    10.2960 c3         1 JCM       0.242800
     21 C9         -11.2120   -37.7680    13.7340 ca         1 JCM      -0.107500
     22 C11         -9.7740   -39.6780    14.5960 c3         1 JCM      -0.033100
     23 C12        -10.7130   -40.8980    14.7350 c3         1 JCM       0.169800
     24 N2         -10.2560   -41.9370    15.6940 n3         1 JCM      -0.721600
     25 C14         -9.6920   -42.5810    18.0930 c6         1 JCM       0.162800
     26 C16        -10.6020   -44.2910    16.5990 c6         1 JCM       0.162800
     27 C18         -9.6670   -38.8370    12.1980 ca         1 JCM      -0.107500
     28 C19        -10.0890   -37.9730    11.1730 ca         1 JCM      -0.096500
     29 C23        -12.8340   -33.3810     7.1110 c3         1 JCM      -0.047800
     30 N4         -12.1310   -30.2240    10.1690 nd         1 JCM      -0.693000
     31 C25        -11.0380   -29.3680    10.0600 cd         1 JCM       0.266000
     32 N5         -12.2020   -27.5030    11.1030 nb         1 JCM      -0.176000
     33 C27        -12.2980   -26.1830    11.3560 ca         1 JCM       0.132900
     34 C29        -10.3200   -25.7930    10.0820 ca         1 JCM       0.389900
     35 N6          -9.3650   -24.9930     9.5520 nv         1 JCM      -1.083900
     36 N7         -10.2070   -27.1000     9.8180 nb         1 JCM      -0.273000
     37 C30         -9.8580   -29.9900     9.7080 cc         1 JCM      -0.242000
     38 S1         -10.0870   -31.6980     9.4760 ss         1 JCM      -0.097400
     39 H2         -11.8190   -34.3470    11.6060 ha         1 JCM       0.129000
     40 H3         -12.4070   -36.1720    12.9250 ha         1 JCM       0.115000
     41 H4          -9.4880   -40.6140    17.2050 h1         1 JCM       0.037700
     42 H5         -11.1670   -41.1120    17.4490 h1         1 JCM       0.037700
     43 H6         -10.0970   -44.4970    19.9840 h1         1 JCM       0.030033
     44 H7         -10.7580   -45.7390    18.8980 h1         1 JCM       0.030033
     45 H8          -9.0700   -45.2040    18.7130 h1         1 JCM       0.030033
     46 H9         -12.1400   -42.9360    15.8650 h1         1 JCM       0.037700
     47 H10        -11.0870   -43.5790    14.5990 h1         1 JCM       0.037700
     48 H11        -11.3570   -37.5300     8.7170 ha         1 JCM       0.118000
     49 H12        -12.0830   -36.0050     6.9260 ha         1 JCM       0.117000
     50 H13        -11.4380   -24.2090    11.0610 ha         1 JCM       0.127000
     51 H14        -15.8910   -32.0520    13.2930 hc         1 JCM       0.033700
     52 H15        -16.1110   -31.0690    11.8290 hc         1 JCM       0.033700
     53 H16        -16.4180   -32.8220    11.7800 hc         1 JCM       0.033700
     54 H17        -13.9810   -33.2530    12.2380 hc         1 JCM       0.049200
     55 H18        -13.6760   -31.5170    12.2870 hc         1 JCM       0.049200
     56 H19        -14.4250   -31.3440     9.8720 h1         1 JCM       0.058700
     57 H20        -14.6920   -33.0750     9.8530 h1         1 JCM       0.058700
     58 H21        -11.6580   -37.6850    14.7220 ha         1 JCM       0.113500
     59 H22         -8.7550   -40.0340    14.4020 hc         1 JCM       0.055200
     60 H23         -9.7360   -39.1300    15.5440 hc         1 JCM       0.055200
     61 H24        -11.7130   -40.5400    15.0180 h1         1 JCM       0.034200
     62 H25        -10.8090   -41.3510    13.7390 h1         1 JCM       0.034200
     63 H27         -8.6450   -42.8200    17.8550 h1         1 JCM       0.037200
     64 H28         -9.7040   -42.1800    19.1170 h1         1 JCM       0.037200
     65 H29        -11.2830   -45.1510    16.5200 h1         1 JCM       0.037200
     66 H30         -9.6110   -44.6350    16.2650 h1         1 JCM       0.037200
     67 H31         -8.9030   -39.5830    11.9890 ha         1 JCM       0.113500
     68 H32         -9.6310   -38.0610    10.1910 ha         1 JCM       0.115000
     69 H33        -13.8480   -33.0060     7.2900 hc         1 JCM       0.049033
     70 H34        -12.1670   -32.5150     7.0230 hc         1 JCM       0.049033
     71 H35        -12.8390   -33.8920     6.1420 hc         1 JCM       0.049033
     72 H36        -13.1370   -25.8560    11.9690 h4         1 JCM       0.019100
     73 H37         -8.7560   -25.3810     8.8340 hn         1 JCM       0.494500
     74 H38         -9.5230   -23.9880     9.5200 hn         1 JCM       0.494500
     75 H39         -8.8780   -29.5520     9.5720 h4         1 JCM       0.171000
@<TRIPOS>BOND
     1     1     3 1   
     2     1    15 1   
     3     1    20 1   
     4     2    10 1   
     5     2    25 1   
     6     2    26 1   
     7     3     4 ar  
     8     3    14 ar  
     9     4     5 ar  
    10     4    39 1   
    11     5     6 1   
    12     5    12 ar  
    13     6     7 ar  
    14     6    28 ar  
    15     7    21 ar  
    16     7    40 1   
    17     8    21 ar  
    18     8    22 1   
    19     8    27 ar  
    20     9    24 1   
    21     9    25 1   
    22     9    41 1   
    23     9    42 1   
    24    10    43 1   
    25    10    44 1   
    26    10    45 1   
    27    11    24 1   
    28    11    26 1   
    29    11    46 1   
    30    11    47 1   
    31    12    13 ar  
    32    12    48 1   
    33    13    14 ar  
    34    13    49 1   
    35    14    29 1   
    36    15    30 2   
    37    15    38 1   
    38    16    31 1   
    39    16    32 ar  
    40    16    36 ar  
    41    17    33 ar  
    42    17    34 ar  
    43    17    50 1   
    44    18    19 1   
    45    18    51 1   
    46    18    52 1   
    47    18    53 1   
    48    19    20 1   
    49    19    54 1   
    50    19    55 1   
    51    20    56 1   
    52    20    57 1   
    53    21    58 1   
    54    22    23 1   
    55    22    59 1   
    56    22    60 1   
    57    23    24 1   
    58    23    61 1   
    59    23    62 1   
    60    25    63 1   
    61    25    64 1   
    62    26    65 1   
    63    26    66 1   
    64    27    28 ar  
    65    27    67 1   
    66    28    68 1   
    67    29    69 1   
    68    29    70 1   
    69    29    71 1   
    70    30    31 1   
    71    31    37 2   
    72    32    33 ar  
    73    33    72 1   
    74    34    35 1   
    75    34    36 ar  
    76    35    73 1   
    77    35    74 1   
    78    37    38 1   
    79    37    75 1   
@<TRIPOS>SUBSTRUCTURE
     1 JCM         1 TEMP              0 ****  ****    0 ROOT
