@<TRIPOS>MOLECULE
JCM
   75    79     1     0     0
SMALL
abcg2


@<TRIPOS>ATOM
      1 N1         -12.8960   -32.5670     9.9420 nh         1 JCM      -0.819100
      2 N3         -10.4450   -43.7730    17.6820 n3         1 JCM      -0.716600
      3 C4         -12.5140   -33.9050     9.6620 ca         1 JCM       0.253000
      4 C5         -12.0670   -34.7150    10.6950 ca         1 JCM      -0.090000
      5 C6         -11.6790   -36.0330    10.4580 cp         1 JCM      -0.033000
      6 C7         -11.2080   -36.8950    11.5600 cp         1 JCM      -0.038000
      7 C8         -11.8030   -36.8410    12.8200 ca         1 JCM      -0.096500
      8 C10        -10.3020   -38.5400    13.6670 ca         1 JCM      -0.075300
      9 C13        -10.5440   -41.4260    17.0150 c6         1 JCM       0.164300
     10 C15         -9.9900   -44.7420    18.6520 c3         1 JCM       0.153100
     11 C17        -10.5470   -43.1060    15.3390 c6         1 JCM       0.164300
     12 C20        -11.7500   -36.5050     9.1490 ca         1 JCM      -0.089000
     13 C21        -12.1930   -35.6910     8.1180 ca         1 JCM      -0.112000
     14 C22        -12.5840   -34.3750     8.3470 ca         1 JCM      -0.055300
     15 C24        -11.9700   -31.5870     9.9030 cc         1 JCM       0.720300
     16 C26        -11.0870   -28.1370    10.2320 ca         1 JCM       0.150000
     17 C28        -11.1010   -25.5040    10.6410 ca         1 JCM      -0.300000
     18 C1         -15.8660   -31.8880    12.2590 c3         1 JCM      -0.086100
     19 C2         -14.4390   -32.2540    11.8760 c3         1 JCM      -0.100400
     20 C3         -14.2590   -32.2750    10.3630 c3         1 JCM       0.242800
     21 C9         -11.3570   -37.6510    13.8530 ca         1 JCM      -0.107500
     22 C11         -9.8500   -39.4530    14.7700 c3         1 JCM      -0.033100
     23 C12        -10.5650   -40.8040    14.6810 c3         1 JCM       0.169800
     24 N2         -10.1110   -41.7610    15.6710 n3         1 JCM      -0.721600
     25 C14        -10.0120   -42.4320    18.0180 c6         1 JCM       0.162800
     26 C16        -10.0110   -44.1090    16.3420 c6         1 JCM       0.162800
     27 C18         -9.7080   -38.5930    12.4080 ca         1 JCM      -0.107500
     28 C19        -10.1510   -37.7860    11.3710 ca         1 JCM      -0.096500
     29 C23        -13.0560   -33.4930     7.2320 c3         1 JCM      -0.047800
     30 N4         -12.1960   -30.3370    10.1610 nd         1 JCM      -0.693000
     31 C25        -11.0580   -29.5910     9.9970 cd         1 JCM       0.266000
     32 N5         -12.2320   -27.6050    10.6310 nb         1 JCM      -0.176000
     33 C27        -12.2120   -26.2820    10.8280 ca         1 JCM       0.132900
     34 C29         -9.9330   -26.1730    10.2170 ca         1 JCM       0.389900
     35 N6          -8.7780   -25.5220    10.0210 nv         1 JCM      -1.083900
     36 N7          -9.9480   -27.4900    10.0170 nb         1 JCM      -0.273000
     37 C30         -9.9480   -30.2760     9.6180 cc         1 JCM      -0.242000
     38 S1         -10.3180   -31.9510     9.4510 ss         1 JCM      -0.097400
     39 H2         -12.0030   -34.2990    11.6930 ha         1 JCM       0.129000
     40 H3         -12.6370   -36.1720    12.9950 ha         1 JCM       0.115000
     41 H4         -10.1730   -40.4380    17.2900 h1         1 JCM       0.037700
     42 H5         -11.6460   -41.3920    17.0840 h1         1 JCM       0.037700
     43 H6         -10.3680   -44.4860    19.6430 h1         1 JCM       0.030033
     44 H7         -10.3680   -45.7330    18.3960 h1         1 JCM       0.030033
     45 H8          -8.8930   -44.8080    18.7180 h1         1 JCM       0.030033
     46 H9         -11.6480   -43.1800    15.3100 h1         1 JCM       0.037700
     47 H10        -10.1790   -43.3650    14.3440 h1         1 JCM       0.037700
     48 H11        -11.4720   -37.5290     8.9300 ha         1 JCM       0.118000
     49 H12        -12.2440   -36.0900     7.1120 ha         1 JCM       0.117000
     50 H13        -11.1170   -24.4360    10.8080 ha         1 JCM       0.127000
     51 H14        -15.9910   -31.8790    13.3420 hc         1 JCM       0.033700
     52 H15        -16.1330   -30.8990    11.8860 hc         1 JCM       0.033700
     53 H16        -16.5830   -32.6020    11.8500 hc         1 JCM       0.033700
     54 H17        -14.1820   -33.2330    12.2870 hc         1 JCM       0.049200
     55 H18        -13.7410   -31.5350    12.3120 hc         1 JCM       0.049200
     56 H19        -14.5540   -31.3140     9.9360 h1         1 JCM       0.058700
     57 H20        -14.9060   -33.0330     9.9180 h1         1 JCM       0.058700
     58 H21        -11.8420   -37.5930    14.8210 ha         1 JCM       0.113500
     59 H22         -8.7730   -39.6220    14.7050 hc         1 JCM       0.055200
     60 H23        -10.0440   -38.9800    15.7350 hc         1 JCM       0.055200
     61 H24        -11.6560   -40.6420    14.7390 h1         1 JCM       0.034200
     62 H25        -10.3690   -41.2250    13.6910 h1         1 JCM       0.034200
     63 H27         -8.9110   -42.3590    18.0530 h1         1 JCM       0.037200
     64 H28        -10.3830   -42.1740    19.0130 h1         1 JCM       0.037200
     65 H29        -10.3800   -45.1050    16.0830 h1         1 JCM       0.037200
     66 H30         -8.9090   -44.1410    16.2680 h1         1 JCM       0.037200
     67 H31         -8.8780   -39.2690    12.2380 ha         1 JCM       0.113500
     68 H32         -9.6510   -37.8370    10.4120 ha         1 JCM       0.115000
     69 H33        -14.0580   -33.1050     7.4180 hc         1 JCM       0.049033
     70 H34        -12.3990   -32.6320     7.1000 hc         1 JCM       0.049033
     71 H35        -13.0800   -34.0390     6.2900 hc         1 JCM       0.049033
     72 H36        -13.1420   -25.8290    11.1540 h4         1 JCM       0.019100
     73 H37         -7.9970   -26.0090     9.6160 hn         1 JCM       0.494500
     74 H38         -8.7420   -24.5180    10.0390 hn         1 JCM       0.494500
     75 H39         -8.9560   -29.8990     9.4370 h4         1 JCM       0.171000
@<TRIPOS>BOND
     1     1     3 1   
     2     1    15 1   
     3     1    20 1   
     4     2    10 1   
     5     2    25 1   
     6     2    26 1   
     7     3     4 ar  
     8     3    14 ar  
     9     4     5 ar  
    10     4    39 1   
    11     5     6 1   
    12     5    12 ar  
    13     6     7 ar  
    14     6    28 ar  
    15     7    21 ar  
    16     7    40 1   
    17     8    21 ar  
    18     8    22 1   
    19     8    27 ar  
    20     9    24 1   
    21     9    25 1   
    22     9    41 1   
    23     9    42 1   
    24    10    43 1   
    25    10    44 1   
    26    10    45 1   
    27    11    24 1   
    28    11    26 1   
    29    11    46 1   
    30    11    47 1   
    31    12    13 ar  
    32    12    48 1   
    33    13    14 ar  
    34    13    49 1   
    35    14    29 1   
    36    15    30 2   
    37    15    38 1   
    38    16    31 1   
    39    16    32 ar  
    40    16    36 ar  
    41    17    33 ar  
    42    17    34 ar  
    43    17    50 1   
    44    18    19 1   
    45    18    51 1   
    46    18    52 1   
    47    18    53 1   
    48    19    20 1   
    49    19    54 1   
    50    19    55 1   
    51    20    56 1   
    52    20    57 1   
    53    21    58 1   
    54    22    23 1   
    55    22    59 1   
    56    22    60 1   
    57    23    24 1   
    58    23    61 1   
    59    23    62 1   
    60    25    63 1   
    61    25    64 1   
    62    26    65 1   
    63    26    66 1   
    64    27    28 ar  
    65    27    67 1   
    66    28    68 1   
    67    29    69 1   
    68    29    70 1   
    69    29    71 1   
    70    30    31 1   
    71    31    37 2   
    72    32    33 ar  
    73    33    72 1   
    74    34    35 1   
    75    34    36 ar  
    76    35    73 1   
    77    35    74 1   
    78    37    38 1   
    79    37    75 1   
@<TRIPOS>SUBSTRUCTURE
     1 JCM         1 TEMP              0 ****  ****    0 ROOT
