@<TRIPOS>MOLECULE
JCO
   44    46     1     0     0
SMALL
bcc


@<TRIPOS>ATOM
      1 CAR        -15.8960     7.9390    24.1430 c6         1 JCO      -0.052400
      2 CAS        -14.9660     8.1260    25.3410 c6         1 JCO      -0.069400
      3 CAT        -15.4020     9.3020    26.2060 c6         1 JCO      -0.073400
      4 CAU        -16.8440     9.1350    26.6670 c6         1 JCO      -0.069400
      5 CAV        -17.7910     8.9500    25.4830 c6         1 JCO      -0.052400
      6 CAN        -17.3310     7.7700    24.6350 c6         1 JCO      -0.190900
      7 SAM        -18.4990     7.4260    23.2970 s6         1 JCO       1.194900
      8 OAO        -17.9150     6.4100    22.4340 o          1 JCO      -0.595300
      9 OAP        -19.8020     7.1830    23.9000 o          1 JCO      -0.595300
     10 NAL        -18.7090     8.8020    22.3840 nu         1 JCO      -0.686500
     11 CAB        -17.6760     9.3780    21.6030 ca         1 JCO       0.083600
     12 CAC        -17.2030    10.6550    21.9240 ca         1 JCO      -0.108000
     13 CAA        -17.1650     8.7040    20.5000 ca         1 JCO      -0.080000
     14 CAF        -16.1510     9.2610    19.7270 ca         1 JCO      -0.147000
     15 CAE        -15.6910    10.5200    20.0620 ca         1 JCO       0.063600
     16 CAD        -16.2220    11.2210    21.1450 ca         1 JCO      -0.131300
     17 CAG        -15.5300    12.5410    21.2280 c5         1 JCO      -0.117100
     18 CAH        -14.5350    12.4830    20.0810 c          1 JCO       0.706500
     19 OAQ        -13.7240    13.3290    19.7700 o          1 JCO      -0.595500
     20 NAI        -14.7110    11.2880    19.4390 n          1 JCO      -0.377000
     21 CAJ        -13.9000    10.8410    18.3270 c3         1 JCO       0.106000
     22 CAK        -12.7450     9.9530    18.7660 c3         1 JCO      -0.115100
     23 H1         -15.5840     7.0730    23.5600 hc         1 JCO       0.050700
     24 H2         -15.8220     8.8160    23.4960 hc         1 JCO       0.050700
     25 H3         -14.9620     7.2100    25.9410 hc         1 JCO       0.044450
     26 H4         -13.9460     8.2700    24.9820 hc         1 JCO       0.044450
     27 H5         -14.7390     9.4020    27.0690 hc         1 JCO       0.041200
     28 H6         -15.3110    10.2280    25.6290 hc         1 JCO       0.041200
     29 H7         -17.1650    10.0000    27.2500 hc         1 JCO       0.044450
     30 H8         -16.9200     8.2640    27.3260 hc         1 JCO       0.044450
     31 H9         -17.7920     9.8630    24.8790 hc         1 JCO       0.050700
     32 H10        -18.8100     8.7940    25.8400 hc         1 JCO       0.050700
     33 H11        -17.3960     6.8510    25.2320 h1         1 JCO       0.105700
     34 H12        -19.3180     9.4700    22.8460 hn         1 JCO       0.436800
     35 H13        -17.6020    11.1840    22.7820 ha         1 JCO       0.135000
     36 H14        -17.5600     7.7350    20.2330 ha         1 JCO       0.167000
     37 H15        -15.7570     8.7130    18.8810 ha         1 JCO       0.149000
     38 H16        -15.0050    12.6980    22.1730 hc         1 JCO       0.092200
     39 H17        -16.2060    13.3900    21.0930 hc         1 JCO       0.092200
     40 H18        -13.5280    11.7260    17.8130 h1         1 JCO       0.061700
     41 H19        -14.5440    10.3170    17.6200 h1         1 JCO       0.061700
     42 H20        -12.1690     9.6370    17.8970 hc         1 JCO       0.045367
     43 H21        -12.0750    10.4880    19.4390 hc         1 JCO       0.045367
     44 H22        -13.0980     9.0570    19.2760 hc         1 JCO       0.045367
@<TRIPOS>BOND
     1     1     2 1   
     2     1     6 1   
     3     1    23 1   
     4     1    24 1   
     5     2     3 1   
     6     2    25 1   
     7     2    26 1   
     8     3     4 1   
     9     3    27 1   
    10     3    28 1   
    11     4     5 1   
    12     4    29 1   
    13     4    30 1   
    14     5     6 1   
    15     5    31 1   
    16     5    32 1   
    17     6     7 1   
    18     6    33 1   
    19     7     8 2   
    20     7     9 2   
    21     7    10 1   
    22    10    11 1   
    23    10    34 1   
    24    11    12 ar  
    25    11    13 ar  
    26    12    16 ar  
    27    12    35 1   
    28    13    14 ar  
    29    13    36 1   
    30    14    15 ar  
    31    14    37 1   
    32    15    16 ar  
    33    15    20 1   
    34    16    17 1   
    35    17    18 1   
    36    17    38 1   
    37    17    39 1   
    38    18    19 2   
    39    18    20 1   
    40    20    21 1   
    41    21    22 1   
    42    21    40 1   
    43    21    41 1   
    44    22    42 1   
    45    22    43 1   
    46    22    44 1   
@<TRIPOS>SUBSTRUCTURE
     1 JCO         1 TEMP              0 ****  ****    0 ROOT
