@<TRIPOS>MOLECULE
JCO
   44    46     1     0     0
SMALL
No Charge or Current Charge


@<TRIPOS>ATOM
      1 CAR        -16.0050     7.7100    23.9890 c6         1 JCO      -0.052400
      2 CAS        -14.9450     7.8560    25.1070 c6         1 JCO      -0.069400
      3 CAT        -15.1550     9.1640    25.9080 c6         1 JCO      -0.073400
      4 CAU        -16.5870     9.2390    26.4950 c6         1 JCO      -0.069400
      5 CAV        -17.6590     9.0910    25.3880 c6         1 JCO      -0.052400
      6 CAN        -17.4470     7.7740    24.5810 c6         1 JCO      -0.301700
      7 SAM        -18.7840     7.4400    23.3650 s6         1 JCO       1.164100
      8 OAO        -18.4070     6.3300    22.4860 o          1 JCO      -0.524500
      9 OAP        -20.0740     7.4320    24.0560 o          1 JCO      -0.524500
     10 NAL        -18.8120     8.8220    22.4300 nu         1 JCO      -0.880100
     11 CAB        -17.7790     9.3650    21.6640 ca         1 JCO       0.222000
     12 CAC        -17.4660    10.7320    21.8230 ca         1 JCO      -0.090000
     13 CAA        -17.0380     8.5820    20.7420 ca         1 JCO      -0.062000
     14 CAF        -15.9840     9.1500    19.9960 ca         1 JCO      -0.129000
     15 CAE        -15.7230    10.5170    20.1600 ca         1 JCO      -0.029000
     16 CAD        -16.4190    11.2820    21.0700 ca         1 JCO      -0.131300
     17 CAG        -15.8410    12.6840    21.1240 c5         1 JCO      -0.117100
     18 CAH        -14.6720    12.6320    20.0960 c          1 JCO       0.564000
     19 OAQ        -13.9180    13.5280    19.7370 o          1 JCO      -0.520000
     20 NAI        -14.6800    11.3040    19.6200 n          1 JCO      -0.217400
     21 CAJ        -13.8010    10.8460    18.5270 c3         1 JCO       0.106000
     22 CAK        -12.5780    10.0640    19.0380 c3         1 JCO      -0.115100
     23 H1         -15.8490     6.7610    23.4580 hc         1 JCO       0.050700
     24 H2         -15.8490     8.5110    23.2550 hc         1 JCO       0.050700
     25 H3         -15.0000     6.9920    25.7850 hc         1 JCO       0.044450
     26 H4         -13.9380     7.8450    24.6690 hc         1 JCO       0.044450
     27 H5         -14.4160     9.2280    26.7190 hc         1 JCO       0.041200
     28 H6         -14.9780    10.0300    25.2550 hc         1 JCO       0.041200
     29 H7         -16.7240    10.1930    27.0220 hc         1 JCO       0.044450
     30 H8         -16.7190     8.4470    27.2460 hc         1 JCO       0.044450
     31 H9         -17.6100     9.9620    24.7210 hc         1 JCO       0.050700
     32 H10        -18.6580     9.1020    25.8470 hc         1 JCO       0.050700
     33 H11        -17.5570     6.9310    25.2740 h1         1 JCO       0.105700
     34 H12        -19.3360     9.4740    22.9970 hn         1 JCO       0.492000
     35 H13        -18.0080    11.3480    22.5360 ha         1 JCO       0.117000
     36 H14        -17.2730     7.5320    20.6010 ha         1 JCO       0.149000
     37 H15        -15.4010     8.5410    19.3100 ha         1 JCO       0.131000
     38 H16        -15.4350    12.9570    22.1030 hc         1 JCO       0.092200
     39 H17        -16.5380    13.4750    20.8320 hc         1 JCO       0.092200
     40 H18        -13.4590    11.7130    17.9460 h1         1 JCO       0.061700
     41 H19        -14.3820    10.2090    17.8490 h1         1 JCO       0.061700
     42 H20        -11.9560     9.7370    18.1960 hc         1 JCO       0.045367
     43 H21        -11.9660    10.6930    19.6950 hc         1 JCO       0.045367
     44 H22        -12.8910     9.1770    19.6010 hc         1 JCO       0.045367
@<TRIPOS>BOND
     1     1     2 1   
     2     1     6 1   
     3     1    23 1   
     4     1    24 1   
     5     2     3 1   
     6     2    25 1   
     7     2    26 1   
     8     3     4 1   
     9     3    27 1   
    10     3    28 1   
    11     4     5 1   
    12     4    29 1   
    13     4    30 1   
    14     5     6 1   
    15     5    31 1   
    16     5    32 1   
    17     6     7 1   
    18     6    33 1   
    19     7     8 2   
    20     7     9 2   
    21     7    10 1   
    22    10    11 1   
    23    10    34 1   
    24    11    12 ar  
    25    11    13 ar  
    26    12    16 ar  
    27    12    35 1   
    28    13    14 ar  
    29    13    36 1   
    30    14    15 ar  
    31    14    37 1   
    32    15    16 ar  
    33    15    20 1   
    34    16    17 1   
    35    17    18 1   
    36    17    38 1   
    37    17    39 1   
    38    18    19 2   
    39    18    20 1   
    40    20    21 1   
    41    21    22 1   
    42    21    40 1   
    43    21    41 1   
    44    22    42 1   
    45    22    43 1   
    46    22    44 1   
@<TRIPOS>SUBSTRUCTURE
     1 JCO         1 TEMP              0 ****  ****    0 ROOT
