@<TRIPOS>MOLECULE
JCP
   48    51     1     0     0
SMALL
No Charge or Current Charge


@<TRIPOS>ATOM
      1 C4          95.6490    -9.9680    11.7490 ca         1 JCP      -0.159600
      2 C6          91.1230    -8.0180    15.5950 ca         1 JCP       0.331000
      3 C7          94.3660   -10.2430    12.3110 ca         1 JCP      -0.028000
      4 C8          92.8610    -5.8610    15.2360 ca         1 JCP       0.361300
      5 C10         93.8120    -4.7080    15.0180 cx         1 JCP      -0.204000
      6 C13         94.5140    -4.4610    13.6960 cx         1 JCP      -0.103400
      7 C17         90.8860    -6.8130    16.2830 ca         1 JCP      -0.151000
      8 C21         91.7580    -5.7270    16.0970 ca         1 JCP      -0.093000
      9 C22         86.3250    -9.5550    16.9530 ca         1 JCP       0.086900
     10 C24         93.7320   -11.4690    11.9740 ca         1 JCP       0.326900
     11 C26         87.9610    -8.1740    16.1210 ca         1 JCP       0.062400
     12 C28         95.4940   -12.1480    10.6440 ca         1 JCP       0.311900
     13 C1          92.2900    -8.0910    14.7620 ca         1 JCP       0.220500
     14 N2          93.1270    -7.0170    14.5880 nb         1 JCP      -0.654000
     15 C3          92.6500    -9.3930    14.0380 c          1 JCP       0.528600
     16 N5          93.7430    -9.2970    13.1830 ns         1 JCP      -0.126000
     17 C9          96.4060    -8.6740    12.0210 c          1 JCP       0.610700
     18 C12         95.3120    -4.8990    14.9010 cx         1 JCP      -0.103400
     19 O14         92.0460   -10.4520    14.2170 o          1 JCP      -0.624100
     20 N15         86.6760    -8.3310    16.5040 nb         1 JCP      -0.149000
     21 N16         87.1260   -10.6370    17.0460 nb         1 JCP      -0.149000
     22 C18         88.8990    -9.2320    16.1910 ca         1 JCP       0.207000
     23 O19         95.8930    -7.7020    12.5540 o          1 JCP      -0.610100
     24 N20         94.2770   -12.4030    11.1620 nb         1 JCP      -0.636000
     25 N23         97.7190    -8.6310    11.6080 ns         1 JCP      -0.493900
     26 C25         96.2020   -10.9650    10.9030 ca         1 JCP      -0.129000
     27 C27         88.4090   -10.4720    16.6580 ca         1 JCP       0.062400
     28 C29         98.5980    -7.4690    11.7700 c3         1 JCP       0.092300
     29 H1          93.4900    -3.8180    15.5520 hc         1 JCP       0.081700
     30 H2          94.3770    -5.1820    12.8940 hc         1 JCP       0.078700
     31 H3          94.6220    -3.4310    13.3640 hc         1 JCP       0.078700
     32 H4          90.0510    -6.7160    16.9690 ha         1 JCP       0.132000
     33 H5          91.5840    -4.7900    16.6200 ha         1 JCP       0.128000
     34 H7          92.7420   -11.7210    12.3420 h4         1 JCP       0.046100
     35 H8          88.2280    -7.1940    15.7310 h4         1 JCP       0.031600
     36 H9          95.9130   -12.9130     9.9910 h4         1 JCP       0.025100
     37 H10         94.1800    -8.3800    13.1830 hn         1 JCP       0.215000
     38 H12         95.9560    -4.1630    15.3780 hc         1 JCP       0.078700
     39 H13         95.7060    -5.9130    14.9020 hc         1 JCP       0.078700
     40 H14         98.0980    -9.4690    11.1880 hn         1 JCP       0.323500
     41 H15         97.1670   -10.8410    10.4210 ha         1 JCP       0.124000
     42 H16         89.0550   -11.3460    16.7300 h4         1 JCP       0.031600
     43 H17         99.5910    -7.6990    11.3630 h1         1 JCP       0.044033
     44 H18         98.1770    -6.6090    11.2330 h1         1 JCP       0.044033
     45 H19         98.6920    -7.2220    12.8360 h1         1 JCP       0.044033
     46 N11         90.2410    -9.1060    15.7750 nu         1 JCP      -0.974000
     47 H6          85.2900    -9.6840    17.2640 h5         1 JCP       0.054100
     48 H11         90.6520    -9.9860    15.4230 hn         1 JCP       0.543000
@<TRIPOS>BOND
     1     1     3 ar  
     2     1    17 1   
     3     1    26 ar  
     4     2     7 ar  
     5     2    13 ar  
     6     2    46 1   
     7     3    10 ar  
     8     3    16 1   
     9     4     5 1   
    10     4     8 ar  
    11     4    14 ar  
    12     5     6 1   
    13     5    18 1   
    14     5    29 1   
    15     6    18 1   
    16     6    30 1   
    17     6    31 1   
    18     7     8 ar  
    19     7    32 1   
    20     8    33 1   
    21     9    20 ar  
    22     9    21 ar  
    23     9    47 1   
    24    10    24 ar  
    25    10    34 1   
    26    11    20 ar  
    27    11    22 ar  
    28    11    35 1   
    29    12    24 ar  
    30    12    26 ar  
    31    12    36 1   
    32    13    14 ar  
    33    13    15 1   
    34    15    16 1   
    35    15    19 2   
    36    16    37 1   
    37    17    23 2   
    38    17    25 1   
    39    18    38 1   
    40    18    39 1   
    41    21    27 ar  
    42    22    27 ar  
    43    22    46 1   
    44    25    28 1   
    45    25    40 1   
    46    26    41 1   
    47    27    42 1   
    48    28    43 1   
    49    28    44 1   
    50    28    45 1   
    51    46    48 1   
@<TRIPOS>SUBSTRUCTURE
     1 JCP         1 TEMP              0 ****  ****    0 ROOT
