@<TRIPOS>MOLECULE
JCP
   48    51     1     0     0
SMALL
abcg2


@<TRIPOS>ATOM
      1 C4          95.5290    -9.8270    11.5990 ca         1 JCP      -0.159600
      2 C6          91.2480    -8.0990    15.5150 ca         1 JCP       0.331000
      3 C7          94.1820    -9.9430    11.9660 ca         1 JCP      -0.028000
      4 C8          92.8220    -5.8600    15.0390 ca         1 JCP       0.361300
      5 C10         93.6650    -4.6780    14.7580 cx         1 JCP      -0.204000
      6 C13         94.1750    -4.4230    13.3650 cx         1 JCP      -0.103400
      7 C17         91.0490    -6.9230    16.2560 ca         1 JCP      -0.151000
      8 C21         91.8220    -5.8140    16.0180 ca         1 JCP      -0.093000
      9 C22         86.7810    -9.6370    17.2850 ca         1 JCP       0.086900
     10 C24         93.4570   -11.0160    11.4380 ca         1 JCP       0.326900
     11 C26         88.2610    -8.3210    16.1920 ca         1 JCP       0.062400
     12 C28         95.2540   -11.8070    10.2820 ca         1 JCP       0.311900
     13 C1          92.2950    -8.0620    14.5760 ca         1 JCP       0.220500
     14 N2          93.0290    -6.9720    14.3660 nb         1 JCP      -0.654000
     15 C3          92.6690    -9.2590    13.7670 c          1 JCP       0.528600
     16 N5          93.5960    -9.0060    12.8140 ns         1 JCP      -0.126000
     17 C9          96.3610    -8.6710    12.0620 c          1 JCP       0.610700
     18 C12         95.1250    -4.8510    14.4280 cx         1 JCP      -0.103400
     19 O14         92.1800   -10.3640    13.9650 o          1 JCP      -0.624100
     20 N15         87.0500    -8.4790    16.7050 nb         1 JCP      -0.149000
     21 N16         87.6150   -10.6600    17.3910 nb         1 JCP      -0.149000
     22 C18         89.2350    -9.3170    16.2700 ca         1 JCP       0.207000
     23 O19         95.9040    -7.5330    12.0790 o          1 JCP      -0.610100
     24 N20         93.9780   -11.9200    10.6240 nb         1 JCP      -0.636000
     25 N23         97.6080    -8.9620    12.4340 ns         1 JCP      -0.493900
     26 C25         96.0600   -10.7780    10.7370 ca         1 JCP      -0.129000
     27 C27         88.8290   -10.4990    16.8950 ca         1 JCP       0.062400
     28 C29         98.5320    -7.9430    12.8800 c3         1 JCP       0.092300
     29 H1          93.4060    -3.8040    15.3430 hc         1 JCP       0.081700
     30 H2          93.9110    -5.1450    12.6040 hc         1 JCP       0.078700
     31 H3          94.2010    -3.3950    13.0270 hc         1 JCP       0.078700
     32 H4          90.3030    -6.8860    17.0380 ha         1 JCP       0.132000
     33 H5          91.6650    -4.9140    16.5970 ha         1 JCP       0.128000
     34 H7          92.4090   -11.1340    11.6750 h4         1 JCP       0.046100
     35 H8          88.4570    -7.3790    15.6920 h4         1 JCP       0.031600
     36 H9          95.6510   -12.5550     9.6070 h4         1 JCP       0.025100
     37 H10         93.9920    -8.0720    12.8250 hn         1 JCP       0.215000
     38 H12         95.8150    -4.1220    14.8330 hc         1 JCP       0.078700
     39 H13         95.5030    -5.8640    14.3870 hc         1 JCP       0.078700
     40 H14         97.9030    -9.9230    12.4720 hn         1 JCP       0.323500
     41 H15         97.0870   -10.7170    10.4050 ha         1 JCP       0.124000
     42 H16         89.5190   -11.3330    16.9790 h4         1 JCP       0.031600
     43 H17         99.4840    -8.4180    13.0980 h1         1 JCP       0.044033
     44 H18         98.6910    -7.1880    12.1110 h1         1 JCP       0.044033
     45 H19         98.1770    -7.4470    13.7840 h1         1 JCP       0.044033
     46 N11         90.5030    -9.2320    15.7290 nu         1 JCP      -0.974000
     47 H6          85.7890    -9.7620    17.7040 h5         1 JCP       0.054100
     48 H11         90.8900   -10.0770    15.3230 hn         1 JCP       0.543000
@<TRIPOS>BOND
     1     1     3 ar  
     2     1    17 1   
     3     1    26 ar  
     4     2     7 ar  
     5     2    13 ar  
     6     2    46 1   
     7     3    10 ar  
     8     3    16 1   
     9     4     5 1   
    10     4     8 ar  
    11     4    14 ar  
    12     5     6 1   
    13     5    18 1   
    14     5    29 1   
    15     6    18 1   
    16     6    30 1   
    17     6    31 1   
    18     7     8 ar  
    19     7    32 1   
    20     8    33 1   
    21     9    20 ar  
    22     9    21 ar  
    23     9    47 1   
    24    10    24 ar  
    25    10    34 1   
    26    11    20 ar  
    27    11    22 ar  
    28    11    35 1   
    29    12    24 ar  
    30    12    26 ar  
    31    12    36 1   
    32    13    14 ar  
    33    13    15 1   
    34    15    16 1   
    35    15    19 2   
    36    16    37 1   
    37    17    23 2   
    38    17    25 1   
    39    18    38 1   
    40    18    39 1   
    41    21    27 ar  
    42    22    27 ar  
    43    22    46 1   
    44    25    28 1   
    45    25    40 1   
    46    26    41 1   
    47    27    42 1   
    48    28    43 1   
    49    28    44 1   
    50    28    45 1   
    51    46    48 1   
@<TRIPOS>SUBSTRUCTURE
     1 JCP         1 TEMP              0 ****  ****    0 ROOT
