@<TRIPOS>MOLECULE
JCQ
   29    30     1     0     0
SMALL
No Charge or Current Charge


@<TRIPOS>ATOM
      1 C10          2.9200     1.2530    -0.5270 cc         1 JCQ       0.299900
      2 N12          5.0080     1.2380    -0.1430 na         1 JCQ      -0.000200
      3 C13          4.5360     0.0320     0.3940 cd         1 JCQ      -0.097000
      4 C15         -1.8950    -1.4150    -1.3940 ca         1 JCQ      -0.124000
      5 C17         -3.8600    -0.0070    -1.0880 ca         1 JCQ      -0.188000
      6 C01         -5.3370     1.8270     0.6170 c3         1 JCQ       0.148900
      7 C03         -3.3930     0.3660     0.1920 ca         1 JCQ       0.136100
      8 C04         -2.1790    -0.1570     0.6670 ca         1 JCQ      -0.122000
      9 C05         -1.4230    -1.0500    -0.1180 ca         1 JCQ      -0.063300
     10 C06         -0.1070    -1.6090     0.4060 c3         1 JCQ       0.212900
     11 O07          0.9360    -0.6670     0.1070 os         1 JCQ      -0.436100
     12 C09          3.1960     0.0560     0.1410 cc         1 JCQ      -0.276600
     13 N11          3.9890     2.0020    -0.7210 nd         1 JCQ      -0.527800
     14 O14          2.5080    -2.0080     1.0830 o          1 JCQ      -0.505000
     15 C16         -3.1090    -0.8960    -1.8760 ca         1 JCQ      -0.078000
     16 H1           1.9600     1.6070    -0.8830 h4         1 JCQ       0.054100
     17 H2           5.9770     1.5580    -0.1340 hn         1 JCQ       0.376000
     18 H3           5.1680    -0.7010     0.8870 h4         1 JCQ       0.171000
     19 H4          -1.3200    -2.1000    -2.0140 ha         1 JCQ       0.118000
     20 H5          -4.7940     0.3790    -1.4840 ha         1 JCQ       0.117000
     21 H6          -5.7130     2.4830     1.4120 h1         1 JCQ       0.040700
     22 H7          -5.2150     2.4300    -0.2920 h1         1 JCQ       0.040700
     23 H8          -6.0920     1.0540     0.4300 h1         1 JCQ       0.040700
     24 H9          -1.8220     0.1360     1.6510 ha         1 JCQ       0.129000
     25 H10         -0.1860    -1.7730     1.4900 h1         1 JCQ       0.056700
     26 H11          0.0950    -2.5790    -0.0680 h1         1 JCQ       0.056700
     27 H12         -3.4670    -1.1830    -2.8630 ha         1 JCQ       0.113000
     28 C08          2.2110    -0.9750     0.4960 c          1 JCQ       0.647700
     29 O02         -4.0850     1.2360     1.0100 os         1 JCQ      -0.342100
@<TRIPOS>BOND
     1     1    12 1   
     2     1    13 2   
     3     1    16 1   
     4     2     3 1   
     5     2    13 1   
     6     2    17 1   
     7     3    12 2   
     8     3    18 1   
     9     4     9 ar  
    10     4    15 ar  
    11     4    19 1   
    12     5     7 ar  
    13     5    15 ar  
    14     5    20 1   
    15     6    21 1   
    16     6    22 1   
    17     6    23 1   
    18     6    29 1   
    19     7     8 ar  
    20     7    29 1   
    21     8     9 ar  
    22     8    24 1   
    23     9    10 1   
    24    10    11 1   
    25    10    25 1   
    26    10    26 1   
    27    11    28 1   
    28    12    28 1   
    29    14    28 2   
    30    15    27 1   
@<TRIPOS>SUBSTRUCTURE
     1 JCQ         1 TEMP              0 ****  ****    0 ROOT
