@<TRIPOS>MOLECULE
JCQ
   29    30     1     0     0
SMALL
bcc


@<TRIPOS>ATOM
      1 C10          2.8820     1.2790    -0.5760 cc         1 JCQ       0.365200
      2 N12          4.9480     1.1290    -0.2250 na         1 JCQ      -0.000600
      3 C13          4.4580     0.0090     0.3030 cd         1 JCQ      -0.064300
      4 C15         -1.8060    -1.3160    -1.3580 ca         1 JCQ      -0.142000
      5 C17         -3.7780     0.0560    -1.0990 ca         1 JCQ      -0.206000
      6 C01         -5.3140     1.7070     0.5780 c3         1 JCQ       0.125700
      7 C03         -3.3970     0.3600     0.2050 ca         1 JCQ       0.136100
      8 C04         -2.2150    -0.1780     0.7200 ca         1 JCQ      -0.140000
      9 C05         -1.4230    -1.0130    -0.0520 ca         1 JCQ      -0.063300
     10 C06         -0.1490    -1.5640     0.5100 c3         1 JCQ       0.189700
     11 O07          0.8970    -0.6460     0.1540 os         1 JCQ      -0.412900
     12 C09          3.0920     0.0570     0.0980 cc         1 JCQ      -0.341900
     13 N11          4.0160     1.9170    -0.7630 nd         1 JCQ      -0.527800
     14 O14          2.4300    -1.9680     1.1130 o          1 JCQ      -0.554000
     15 C16         -2.9760    -0.7810    -1.8680 ca         1 JCQ      -0.096000
     16 H1           1.9520     1.7040    -0.9190 h4         1 JCQ       0.054100
     17 H2           5.9160     1.4120    -0.2480 hn         1 JCQ       0.325700
     18 H3           5.0860    -0.7290     0.7750 h4         1 JCQ       0.189000
     19 H4          -1.1960    -1.9720    -1.9660 ha         1 JCQ       0.136000
     20 H5          -4.6890     0.4500    -1.5290 ha         1 JCQ       0.135000
     21 H6          -5.7120     2.3000     1.3970 h1         1 JCQ       0.040700
     22 H7          -5.1670     2.3590    -0.2870 h1         1 JCQ       0.040700
     23 H8          -6.0420     0.9340     0.3170 h1         1 JCQ       0.040700
     24 H9          -1.9280     0.0590     1.7380 ha         1 JCQ       0.147000
     25 H10         -0.2060    -1.6560     1.5960 h1         1 JCQ       0.056700
     26 H11          0.0670    -2.5500     0.0940 h1         1 JCQ       0.056700
     27 H12         -3.2800    -1.0150    -2.8800 ha         1 JCQ       0.131000
     28 C08          2.1360    -0.9600     0.5130 c          1 JCQ       0.696700
     29 O02         -4.0970     1.1530     1.0370 os         1 JCQ      -0.318900
@<TRIPOS>BOND
     1     1    12 1   
     2     1    13 2   
     3     1    16 1   
     4     2     3 1   
     5     2    13 1   
     6     2    17 1   
     7     3    12 2   
     8     3    18 1   
     9     4     9 ar  
    10     4    15 ar  
    11     4    19 1   
    12     5     7 ar  
    13     5    15 ar  
    14     5    20 1   
    15     6    21 1   
    16     6    22 1   
    17     6    23 1   
    18     6    29 1   
    19     7     8 ar  
    20     7    29 1   
    21     8     9 ar  
    22     8    24 1   
    23     9    10 1   
    24    10    11 1   
    25    10    25 1   
    26    10    26 1   
    27    11    28 1   
    28    12    28 1   
    29    14    28 2   
    30    15    27 1   
@<TRIPOS>SUBSTRUCTURE
     1 JCQ         1 TEMP              0 ****  ****    0 ROOT
