@<TRIPOS>MOLECULE
JCR
   50    54     1     0     0
SMALL
abcg2


@<TRIPOS>ATOM
      1 C4         -19.5520    10.6390   -17.5170 cc         1 JCR       0.440900
      2 C5         -20.2330     9.5250   -17.0940 cd         1 JCR      -0.340600
      3 C6         -21.6320     9.3640   -17.3170 c          1 JCR       0.640600
      4 C8         -18.1370     9.4400   -16.5080 cd         1 JCR       0.466800
      5 N1         -22.1340    10.4540   -18.0220 ns         1 JCR      -0.474500
      6 N3         -20.1430    11.6550   -18.2150 n          1 JCR      -0.362300
      7 CAI        -18.7590     6.2410   -17.9070 ca         1 JCR      -0.085500
      8 CAE        -18.8500     5.1810   -18.7990 ca         1 JCR      -0.112000
      9 CAD        -19.8380     4.2160   -18.6440 ca         1 JCR      -0.099000
     10 CAF        -20.7390     4.3200   -17.5920 ca         1 JCR      -0.112000
     11 CAJ        -20.6520     5.3850   -16.7060 ca         1 JCR      -0.085500
     12 CAT        -19.6610     6.3500   -16.8530 ca         1 JCR      -0.122300
     13 N7         -19.2950     8.7590   -16.4340 na         1 JCR      -0.102500
     14 O6         -22.3560     8.4490   -16.9700 o          1 JCR      -0.533000
     15 C2         -21.4910    11.5940   -18.4660 c          1 JCR       0.626000
     16 O2         -22.0970    12.4740   -19.0440 o          1 JCR      -0.557000
     17 CAM        -19.3750    12.8320   -18.6110 c3         1 JCR       0.116000
     18 CAA        -19.3640    13.9080   -17.5410 c3         1 JCR      -0.112100
     19 N9         -18.2630    10.5880   -17.1540 nc         1 JCR      -0.699000
     20 CAN        -16.8350     8.9960   -15.9330 c3         1 JCR      -0.115000
     21 CAU        -15.7780     8.9400   -16.9870 cc         1 JCR       0.419800
     22 NAP        -14.5260     9.4140   -16.7790 na         1 JCR      -0.309600
     23 CAY        -13.8030     9.1760   -17.9190 ca         1 JCR      -0.076200
     24 CAK        -12.4870     9.4410   -18.2750 ca         1 JCR      -0.115000
     25 CAG        -12.0970     9.0490   -19.5440 ca         1 JCR      -0.091000
     26 CAH        -12.9890     8.4170   -20.4230 ca         1 JCR      -0.133000
     27 CAL        -14.2980     8.1580   -20.0600 ca         1 JCR      -0.047000
     28 CAZ        -14.7110     8.5450   -18.7860 ca         1 JCR       0.072400
     29 NAS        -15.9330     8.4160   -18.1700 nd         1 JCR      -0.572100
     30 H1         -23.1270    10.4310   -18.2200 hn         1 JCR       0.343500
     31 H3         -18.1440     5.1060   -19.6160 ha         1 JCR       0.116000
     32 H4         -19.9070     3.3900   -19.3400 ha         1 JCR       0.113000
     33 H5         -21.5150     3.5770   -17.4650 ha         1 JCR       0.116000
     34 H6         -21.3620     5.4670   -15.8910 ha         1 JCR       0.128500
     35 H9         -18.3630    12.4970   -18.8300 h1         1 JCR       0.071700
     36 H10        -19.7950    13.2110   -19.5390 h1         1 JCR       0.071700
     37 H11        -18.7710    14.7570   -17.8810 hc         1 JCR       0.045700
     38 H12        -20.3700    14.2670   -17.3270 hc         1 JCR       0.045700
     39 H13        -18.9230    13.5420   -16.6140 hc         1 JCR       0.045700
     40 H14        -16.9130     8.0170   -15.4590 hc         1 JCR       0.074200
     41 H15        -16.5400     9.6960   -15.1480 hc         1 JCR       0.074200
     42 H16        -14.1960     9.8670   -15.9390 hn         1 JCR       0.357000
     43 H17        -11.7980     9.9280   -17.5970 ha         1 JCR       0.117000
     44 H18        -11.0800     9.2340   -19.8650 ha         1 JCR       0.114000
     45 H19        -12.6410     8.1260   -21.4060 ha         1 JCR       0.115000
     46 H20        -14.9840     7.6690   -20.7400 ha         1 JCR       0.129000
     47 CAO        -19.5520     7.4600   -15.8390 c3         1 JCR       0.125900
     48 H2         -17.9740     6.9780   -18.0430 ha         1 JCR       0.128500
     49 H7         -20.4660     7.5290   -15.2520 h1         1 JCR       0.071700
     50 H8         -18.7510     7.2510   -15.1310 h1         1 JCR       0.071700
@<TRIPOS>BOND
     1     1     2 2   
     2     1     6 1   
     3     1    19 1   
     4     2     3 1   
     5     2    13 1   
     6     3     5 1   
     7     3    14 2   
     8     4    13 1   
     9     4    19 2   
    10     4    20 1   
    11     5    15 1   
    12     5    30 1   
    13     6    15 1   
    14     6    17 1   
    15     7     8 ar  
    16     7    12 ar  
    17     7    48 1   
    18     8     9 ar  
    19     8    31 1   
    20     9    10 ar  
    21     9    32 1   
    22    10    11 ar  
    23    10    33 1   
    24    11    12 ar  
    25    11    34 1   
    26    12    47 1   
    27    13    47 1   
    28    15    16 2   
    29    17    18 1   
    30    17    35 1   
    31    17    36 1   
    32    18    37 1   
    33    18    38 1   
    34    18    39 1   
    35    20    21 1   
    36    20    40 1   
    37    20    41 1   
    38    21    22 1   
    39    21    29 2   
    40    22    23 1   
    41    22    42 1   
    42    23    24 ar  
    43    23    28 ar  
    44    24    25 ar  
    45    24    43 1   
    46    25    26 ar  
    47    25    44 1   
    48    26    27 ar  
    49    26    45 1   
    50    27    28 ar  
    51    27    46 1   
    52    28    29 1   
    53    47    49 1   
    54    47    50 1   
@<TRIPOS>SUBSTRUCTURE
     1 JCR         1 TEMP              0 ****  ****    0 ROOT
