@<TRIPOS>MOLECULE
JCR
   50    54     1     0     0
SMALL
No Charge or Current Charge


@<TRIPOS>ATOM
      1 C4         -19.6570    11.2580   -17.0820 cc         1 JCR       0.440900
      2 C5         -20.2310    10.0350   -17.1590 cd         1 JCR      -0.340600
      3 C6         -21.5750     9.8570   -17.7120 c          1 JCR       0.640600
      4 C8         -18.1940     9.9290   -16.2850 cd         1 JCR       0.466800
      5 N1         -22.1310    11.0300   -18.1100 ns         1 JCR      -0.474500
      6 N3         -20.3070    12.3940   -17.5130 n          1 JCR      -0.362300
      7 CAI        -18.8230     7.4160   -19.0240 ca         1 JCR      -0.085500
      8 CAE        -18.2330     6.6940   -20.0760 ca         1 JCR      -0.112000
      9 CAD        -17.6160     5.4580   -19.8240 ca         1 JCR      -0.099000
     10 CAF        -17.5960     4.9400   -18.5200 ca         1 JCR      -0.112000
     11 CAJ        -18.1850     5.6600   -17.4660 ca         1 JCR      -0.085500
     12 CAT        -18.7950     6.9080   -17.7060 ca         1 JCR      -0.122300
     13 N7         -19.2910     9.1500   -16.6470 na         1 JCR      -0.102500
     14 O6         -22.1550     8.7910   -17.8190 o          1 JCR      -0.533000
     15 C2         -21.6000    12.2850   -18.0540 c          1 JCR       0.626000
     16 O2         -22.2410    13.2420   -18.4550 o          1 JCR      -0.557000
     17 CAM        -19.6630    13.7280   -17.4310 c3         1 JCR       0.116000
     18 CAA        -19.8220    14.3820   -16.0470 c3         1 JCR      -0.112100
     19 N9         -18.4050    11.2090   -16.5540 nc         1 JCR      -0.699000
     20 CAN        -16.9100     9.4370   -15.6890 c3         1 JCR      -0.115000
     21 CAU        -16.1100     8.6110   -16.6440 cc         1 JCR       0.419800
     22 NAP        -15.9010     8.9400   -17.9820 na         1 JCR      -0.309600
     23 CAY        -15.1710     7.9300   -18.5260 ca         1 JCR      -0.076200
     24 CAK        -14.7230     7.7450   -19.8390 ca         1 JCR      -0.115000
     25 CAG        -13.9890     6.5730   -20.1150 ca         1 JCR      -0.091000
     26 CAH        -13.7290     5.6350   -19.0860 ca         1 JCR      -0.133000
     27 CAL        -14.2020     5.8630   -17.7740 ca         1 JCR      -0.047000
     28 CAZ        -14.9320     7.0340   -17.5240 ca         1 JCR       0.072400
     29 NAS        -15.5040     7.4510   -16.3250 nd         1 JCR      -0.572100
     30 H1         -23.0580    10.9650   -18.4990 hn         1 JCR       0.343500
     31 H3         -18.2510     7.0950   -21.0870 ha         1 JCR       0.116000
     32 H4         -17.1550     4.9030   -20.6380 ha         1 JCR       0.113000
     33 H5         -17.1180     3.9830   -18.3230 ha         1 JCR       0.116000
     34 H6         -18.1540     5.2510   -16.4580 ha         1 JCR       0.128500
     35 H9         -18.5930    13.6220   -17.6540 h1         1 JCR       0.071700
     36 H10        -20.0770    14.3960   -18.1970 h1         1 JCR       0.071700
     37 H11        -19.3280    15.3610   -16.0290 hc         1 JCR       0.045700
     38 H12        -20.8830    14.5260   -15.8090 hc         1 JCR       0.045700
     39 H13        -19.3730    13.7560   -15.2670 hc         1 JCR       0.045700
     40 H14        -17.1280     8.8540   -14.7880 hc         1 JCR       0.074200
     41 H15        -16.3000    10.2860   -15.3600 hc         1 JCR       0.074200
     42 H16        -16.2410     9.7680   -18.4520 hn         1 JCR       0.357000
     43 H17        -14.9360     8.4740   -20.6180 ha         1 JCR       0.117000
     44 H18        -13.6230     6.3880   -21.1230 ha         1 JCR       0.114000
     45 H19        -13.1640     4.7330   -19.3070 ha         1 JCR       0.115000
     46 H20        -14.0130     5.1470   -16.9780 ha         1 JCR       0.129000
     47 CAO        -19.4110     7.6820   -16.5380 c3         1 JCR       0.125900
     48 H2         -19.2970     8.3700   -19.2410 ha         1 JCR       0.128500
     49 H7         -20.4710     7.4170   -16.4560 h1         1 JCR       0.071700
     50 H8         -18.9330     7.3660   -15.6020 h1         1 JCR       0.071700
@<TRIPOS>BOND
     1     1     2 2   
     2     1     6 1   
     3     1    19 1   
     4     2     3 1   
     5     2    13 1   
     6     3     5 1   
     7     3    14 2   
     8     4    13 1   
     9     4    19 2   
    10     4    20 1   
    11     5    15 1   
    12     5    30 1   
    13     6    15 1   
    14     6    17 1   
    15     7     8 ar  
    16     7    12 ar  
    17     7    48 1   
    18     8     9 ar  
    19     8    31 1   
    20     9    10 ar  
    21     9    32 1   
    22    10    11 ar  
    23    10    33 1   
    24    11    12 ar  
    25    11    34 1   
    26    12    47 1   
    27    13    47 1   
    28    15    16 2   
    29    17    18 1   
    30    17    35 1   
    31    17    36 1   
    32    18    37 1   
    33    18    38 1   
    34    18    39 1   
    35    20    21 1   
    36    20    40 1   
    37    20    41 1   
    38    21    22 1   
    39    21    29 2   
    40    22    23 1   
    41    22    42 1   
    42    23    24 ar  
    43    23    28 ar  
    44    24    25 ar  
    45    24    43 1   
    46    25    26 ar  
    47    25    44 1   
    48    26    27 ar  
    49    26    45 1   
    50    27    28 ar  
    51    27    46 1   
    52    28    29 1   
    53    47    49 1   
    54    47    50 1   
@<TRIPOS>SUBSTRUCTURE
     1 JCR         1 TEMP              0 ****  ****    0 ROOT
