@<TRIPOS>MOLECULE
JCX
   25    25     1     0     0
SMALL
No Charge or Current Charge


@<TRIPOS>ATOM
      1 C10         12.9980    38.8900   129.4020 ca         1 JCX      -0.090000
      2 C02         13.1320    40.6750   126.8220 c3         1 JCX       0.026500
      3 C03         11.9590    39.7180   127.2120 c3         1 JCX      -0.008400
      4 C06         12.2940    37.2470   127.7550 ca         1 JCX      -0.090000
      5 C09         13.4240    37.8550   130.2520 ca         1 JCX      -0.121500
      6 C04         10.7570    40.4590   127.8540 c3         1 JCX      -0.083100
      7 C05         12.4310    38.5960   128.1430 ca         1 JCX      -0.028300
      8 C07         12.7200    36.2120   128.6060 ca         1 JCX      -0.121500
      9 C08         13.2850    36.5160   129.8550 ca         1 JCX      -0.132000
     10 N01         12.6600    41.7850   125.9130 n8         1 JCX      -0.974200
     11 H1          13.1100    39.9230   129.7240 ha         1 JCX       0.110000
     12 H2          13.4490    41.1800   127.7450 h1         1 JCX       0.002700
     13 H3          11.5910    39.2690   126.2810 hc         1 JCX       0.078700
     14 H4          11.8580    36.9970   126.7900 ha         1 JCX       0.110000
     15 H5          13.8600    38.0920   131.2200 ha         1 JCX       0.091500
     16 H6           9.9840    39.7410   128.1550 hc         1 JCX       0.017033
     17 H7          11.0680    41.0180   128.7450 hc         1 JCX       0.017033
     18 H8          10.2970    41.1620   127.1490 hc         1 JCX       0.017033
     19 H9          12.6110    35.1750   128.2960 ha         1 JCX       0.091500
     20 H10         13.6140    35.7150   130.5130 ha         1 JCX       0.088000
     21 H11         11.9050    42.3000   126.3780 hn         1 JCX       0.363500
     22 H12         13.4110    42.4770   125.8080 hn         1 JCX       0.363500
     23 C11         14.3980    39.8600   126.3100 c          1 JCX       0.717000
     24 O12         15.4870    40.1160   126.8110 o          1 JCX      -0.722500
     25 O13         14.2620    39.0720   125.3820 o          1 JCX      -0.722500
@<TRIPOS>BOND
     1     1     5 ar  
     2     1     7 ar  
     3     1    11 1   
     4     2     3 1   
     5     2    10 1   
     6     2    12 1   
     7     2    23 1   
     8     3     6 1   
     9     3     7 1   
    10     3    13 1   
    11     4     7 ar  
    12     4     8 ar  
    13     4    14 1   
    14     5     9 ar  
    15     5    15 1   
    16     6    16 1   
    17     6    17 1   
    18     6    18 1   
    19     8     9 ar  
    20     8    19 1   
    21     9    20 1   
    22    10    21 1   
    23    10    22 1   
    24    23    24 1   
    25    23    25 1   
@<TRIPOS>SUBSTRUCTURE
     1 JCX         1 TEMP              0 ****  ****    0 ROOT
