@<TRIPOS>MOLECULE
JCX
   25    25     1     0     0
SMALL
bcc


@<TRIPOS>ATOM
      1 C10         12.9540    38.8820   129.4280 ca         1 JCX      -0.108000
      2 C02         13.1170    40.6880   126.8910 c3         1 JCX       0.026500
      3 C03         11.9690    39.7300   127.2530 c3         1 JCX      -0.008400
      4 C06         12.3600    37.2890   127.7480 ca         1 JCX      -0.108000
      5 C09         13.3770    37.8520   130.2570 ca         1 JCX      -0.139500
      6 C04         10.7830    40.4640   127.8810 c3         1 JCX      -0.083100
      7 C05         12.4400    38.6180   128.1580 ca         1 JCX      -0.028300
      8 C07         12.7790    36.2540   128.5740 ca         1 JCX      -0.139500
      9 C08         13.2930    36.5320   129.8330 ca         1 JCX      -0.150000
     10 N01         12.6430    41.6580   125.9030 n8         1 JCX      -0.863800
     11 H1          13.0250    39.9050   129.7770 ha         1 JCX       0.128000
     12 H2          13.4510    41.1790   127.8180 h1         1 JCX       0.002700
     13 H3          11.6330    39.2770   126.3160 hc         1 JCX       0.078700
     14 H4          11.9620    37.0600   126.7660 ha         1 JCX       0.128000
     15 H5          13.7770    38.0820   131.2370 ha         1 JCX       0.109500
     16 H6           9.9900    39.7650   128.1490 hc         1 JCX       0.017033
     17 H7          11.0780    40.9950   128.7890 hc         1 JCX       0.017033
     18 H8          10.3490    41.1920   127.1940 hc         1 JCX       0.017033
     19 H9          12.7040    35.2290   128.2320 ha         1 JCX       0.109500
     20 H10         13.6230    35.7280   130.4780 ha         1 JCX       0.106000
     21 H11         12.0210    42.3180   126.3530 hn         1 JCX       0.308300
     22 H12         13.4250    42.2170   125.5830 hn         1 JCX       0.308300
     23 C11         14.3160    39.9000   126.3090 c          1 JCX       0.927600
     24 O12         15.3940    39.9770   126.9320 o          1 JCX      -0.827800
     25 O13         14.1020    39.2580   125.2620 o          1 JCX      -0.827800
@<TRIPOS>BOND
     1     1     5 ar  
     2     1     7 ar  
     3     1    11 1   
     4     2     3 1   
     5     2    10 1   
     6     2    12 1   
     7     2    23 1   
     8     3     6 1   
     9     3     7 1   
    10     3    13 1   
    11     4     7 ar  
    12     4     8 ar  
    13     4    14 1   
    14     5     9 ar  
    15     5    15 1   
    16     6    16 1   
    17     6    17 1   
    18     6    18 1   
    19     8     9 ar  
    20     8    19 1   
    21     9    20 1   
    22    10    21 1   
    23    10    22 1   
    24    23    24 1   
    25    23    25 1   
@<TRIPOS>SUBSTRUCTURE
     1 JCX         1 TEMP              0 ****  ****    0 ROOT
