@<TRIPOS>MOLECULE
JCY
   62    65     1     0     0
SMALL
No Charge or Current Charge


@<TRIPOS>ATOM
      1 C10         -1.7660     1.7610     1.5580 ca         1 JCY      -0.134000
      2 C11         -1.0420     0.5530     1.4680 ca         1 JCY      -0.049000
      3 C12         -1.4740    -0.5150     0.6210 cp         1 JCY      -0.058000
      4 C13         -2.6700    -0.3420    -0.1310 ca         1 JCY      -0.031000
      5 C20          1.3810    -3.0770     0.2850 ca         1 JCY      -0.253000
      6 C21          0.6990    -1.8440     0.3530 ca         1 JCY       0.188100
      7 C23          2.7820    -0.5520     0.0360 c3         1 JCY       0.160600
      8 C14         -3.3640     0.8700    -0.0160 ca         1 JCY      -0.228900
      9 C15         -0.7120    -1.8010     0.5390 cp         1 JCY      -0.086000
     10 C16         -1.4080    -3.0320     0.6400 ca         1 JCY      -0.044000
     11 C17         -0.7250    -4.2570     0.5720 ca         1 JCY      -0.194000
     12 C18          0.6640    -4.2740     0.3970 ca         1 JCY       0.211000
     13 C01         -7.4490    -0.7800    -2.0910 c3         1 JCY       0.148600
     14 C03         -6.1560    -1.2060    -0.0440 c3         1 JCY       0.148600
     15 C05         -4.5850     1.3530    -0.6280 cc         1 JCY       0.350900
     16 C09         -2.9310     1.8740     0.7890 ca         1 JCY      -0.037200
     17 C24          3.1510     0.9400    -0.0640 c3         1 JCY       0.008900
     18 C25          4.6360     1.1600    -0.2390 cc         1 JCY      -0.213300
     19 C26          5.3570     1.2720    -1.3920 cd         1 JCY      -0.122300
     20 C27          4.9030     1.2080    -2.8310 c3         1 JCY      -0.033800
     21 C31          5.5730     1.2900     0.8090 cc         1 JCY       0.266300
     22 C32          5.2010     1.2230     2.2650 c3         1 JCY      -0.120400
     23 F19          1.3160    -5.4540     0.3320 f          1 JCY      -0.179000
     24 N06         -4.8810     2.6020    -0.2220 nd         1 JCY      -0.494100
     25 N07         -3.8430     2.8980     0.6580 na         1 JCY       0.076600
     26 N28          6.6800     1.4700    -0.9780 na         1 JCY       0.131800
     27 N30          6.8110     1.4780     0.4020 nd         1 JCY      -0.521800
     28 O22          1.3590    -0.6380     0.2130 os         1 JCY      -0.342100
     29 H1          -1.4310     2.5680     2.2040 ha         1 JCY       0.119000
     30 H2          -0.1420     0.4330     2.0660 ha         1 JCY       0.118000
     31 H3          -3.0330    -1.1310    -0.7850 ha         1 JCY       0.118000
     32 H4           2.4550    -3.1290     0.1410 ha         1 JCY       0.137000
     33 H5           3.0920    -1.0660    -0.8830 h1         1 JCY       0.039700
     34 H6           3.3070    -1.0030     0.8880 h1         1 JCY       0.039700
     35 H7          -2.4860    -3.0320     0.7860 ha         1 JCY       0.121000
     36 H8          -1.2710    -5.1930     0.6570 ha         1 JCY       0.135000
     37 H9          -6.9040    -1.5250    -2.6870 h1         1 JCY       0.031033
     38 H10         -8.3220    -1.2710    -1.6400 h1         1 JCY       0.031033
     39 H11         -7.8160     0.0020    -2.7690 h1         1 JCY       0.031033
     40 H12         -5.4990    -1.9610    -0.4970 h1         1 JCY       0.031033
     41 H13         -5.6160    -0.7330     0.7870 h1         1 JCY       0.031033
     42 H14         -7.0290    -1.7210     0.3780 h1         1 JCY       0.031033
     43 H15         -5.8230     1.3010    -2.3540 h1         1 JCY       0.042700
     44 H16         -4.7740    -0.0990    -2.1810 h1         1 JCY       0.042700
     45 H17         -2.8000     4.6770     1.0930 h1         1 JCY       0.053033
     46 H18         -4.5820     4.8310     1.0940 h1         1 JCY       0.053033
     47 H19         -3.7560     4.0060     2.4490 h1         1 JCY       0.053033
     48 H20          2.6090     1.3830    -0.9080 hc         1 JCY       0.059200
     49 H21          2.7920     1.4580     0.8330 hc         1 JCY       0.059200
     50 H22          4.8400     2.2130    -3.2660 hc         1 JCY       0.051700
     51 H23          5.5980     0.6200    -3.4420 hc         1 JCY       0.051700
     52 H24          3.9150     0.7420    -2.9200 hc         1 JCY       0.051700
     53 H25          7.6520     2.4560    -2.5680 h1         1 JCY       0.055367
     54 H26          8.7290     1.9260    -1.2430 h1         1 JCY       0.055367
     55 H27          8.0590     0.7230    -2.3850 h1         1 JCY       0.055367
     56 H28          4.6760     0.2880     2.4930 hc         1 JCY       0.046700
     57 H29          6.0890     1.2720     2.9060 hc         1 JCY       0.046700
     58 H30          4.5450     2.0580     2.5370 hc         1 JCY       0.046700
     59 C04         -5.4360     0.5770    -1.6240 c3         1 JCY       0.160500
     60 C08         -3.7400     4.1830     1.3670 c3         1 JCY       0.081900
     61 C29          7.8540     1.6550    -1.8460 c3         1 JCY       0.071900
     62 N02         -6.5770    -0.2000    -1.0460 n3         1 JCY      -0.702600
@<TRIPOS>BOND
     1     1     2 ar  
     2     1    16 ar  
     3     1    29 1   
     4     2     3 ar  
     5     2    30 1   
     6     3     4 ar  
     7     3     9 1   
     8     4     8 ar  
     9     4    31 1   
    10     5     6 ar  
    11     5    12 ar  
    12     5    32 1   
    13     6     9 ar  
    14     6    28 1   
    15     7    17 1   
    16     7    28 1   
    17     7    33 1   
    18     7    34 1   
    19     8    15 1   
    20     8    16 ar  
    21     9    10 ar  
    22    10    11 ar  
    23    10    35 1   
    24    11    12 ar  
    25    11    36 1   
    26    12    23 1   
    27    13    37 1   
    28    13    38 1   
    29    13    39 1   
    30    13    62 1   
    31    14    40 1   
    32    14    41 1   
    33    14    42 1   
    34    14    62 1   
    35    15    24 2   
    36    15    59 1   
    37    16    25 1   
    38    17    18 1   
    39    17    48 1   
    40    17    49 1   
    41    18    19 2   
    42    18    21 1   
    43    19    20 1   
    44    19    26 1   
    45    20    50 1   
    46    20    51 1   
    47    20    52 1   
    48    21    22 1   
    49    21    27 2   
    50    22    56 1   
    51    22    57 1   
    52    22    58 1   
    53    24    25 1   
    54    25    60 1   
    55    26    27 1   
    56    26    61 1   
    57    43    59 1   
    58    44    59 1   
    59    45    60 1   
    60    46    60 1   
    61    47    60 1   
    62    53    61 1   
    63    54    61 1   
    64    55    61 1   
    65    59    62 1   
@<TRIPOS>SUBSTRUCTURE
     1 JCY         1 TEMP              0 ****  ****    0 ROOT
