@<TRIPOS>MOLECULE
JCY
   62    65     1     0     0
SMALL
bcc


@<TRIPOS>ATOM
      1 C10         -1.8450     1.5730     1.8030 ca         1 JCY      -0.152000
      2 C11         -1.0930     0.4280     1.6940 ca         1 JCY      -0.067000
      3 C12         -1.4030    -0.6000     0.7670 cp         1 JCY      -0.058000
      4 C13         -2.4910    -0.4610    -0.0700 ca         1 JCY      -0.049000
      5 C20          1.5300    -2.9840     0.4580 ca         1 JCY      -0.271000
      6 C21          0.7940    -1.8030     0.5040 ca         1 JCY       0.188100
      7 C23          2.7350    -0.4750     0.1080 c3         1 JCY       0.137400
      8 C14         -3.2710     0.6990     0.0140 ca         1 JCY      -0.228900
      9 C15         -0.5950    -1.8390     0.7210 cp         1 JCY      -0.086000
     10 C16         -1.2060    -3.0780     0.8650 ca         1 JCY      -0.062000
     11 C17         -0.4930    -4.2700     0.8150 ca         1 JCY      -0.212000
     12 C18          0.8660    -4.1870     0.6150 ca         1 JCY       0.175900
     13 C01         -7.3010    -0.4070    -2.3960 c3         1 JCY       0.148600
     14 C03         -6.3740    -0.9690    -0.2730 c3         1 JCY       0.148600
     15 C05         -4.4240     1.1970    -0.6530 cc         1 JCY       0.350900
     16 C09         -2.9470     1.6960     0.9470 ca         1 JCY      -0.037200
     17 C24          3.0610     0.9980    -0.0750 c3         1 JCY       0.008900
     18 C25          4.5270     1.1920    -0.2780 cc         1 JCY      -0.278600
     19 C26          5.2250     1.2340    -1.4690 cd         1 JCY      -0.071600
     20 C27          4.7450     1.1570    -2.8740 c3         1 JCY      -0.033800
     21 C31          5.5170     1.3170     0.7190 cc         1 JCY       0.331600
     22 C32          5.3170     1.3210     2.1960 c3         1 JCY      -0.120400
     23 F19          1.5910    -5.3160     0.5660 f          1 JCY      -0.143900
     24 N06         -4.7520     2.3700    -0.1650 nd         1 JCY      -0.494100
     25 N07         -3.8780     2.6680     0.8020 na         1 JCY       0.105900
     26 N28          6.5260     1.3730    -1.1400 na         1 JCY       0.110400
     27 N30          6.7160     1.4330     0.1800 nd         1 JCY      -0.521800
     28 O22          1.3390    -0.5910     0.3310 os         1 JCY      -0.318900
     29 H1          -1.5880     2.3400     2.5230 ha         1 JCY       0.137000
     30 H2          -0.2440     0.3030     2.3520 ha         1 JCY       0.136000
     31 H3          -2.7290    -1.2340    -0.7910 ha         1 JCY       0.136000
     32 H4           2.5990    -2.9900     0.2900 ha         1 JCY       0.155000
     33 H5           3.0310    -1.0370    -0.7850 h1         1 JCY       0.039700
     34 H6           3.2940    -0.8830     0.9580 h1         1 JCY       0.039700
     35 H7          -2.2750    -3.1160     1.0350 ha         1 JCY       0.139000
     36 H8          -0.9850    -5.2260     0.9390 ha         1 JCY       0.153000
     37 H9          -6.8590    -1.2690    -2.9210 h1         1 JCY       0.031033
     38 H10         -8.2910    -0.7050    -2.0470 h1         1 JCY       0.031033
     39 H11         -7.4330     0.3940    -3.1260 h1         1 JCY       0.031033
     40 H12         -5.8380    -1.8630    -0.6300 h1         1 JCY       0.031033
     41 H13         -5.8400    -0.5890     0.5990 h1         1 JCY       0.031033
     42 H14         -7.3630    -1.2850     0.0600 h1         1 JCY       0.031033
     43 H15         -5.3900     1.2700    -2.5390 h1         1 JCY       0.042700
     44 H16         -4.6060    -0.2610    -2.1850 h1         1 JCY       0.042700
     45 H17         -3.3080     4.6840     0.9740 h1         1 JCY       0.053033
     46 H18         -4.9590     4.2900     1.4880 h1         1 JCY       0.053033
     47 H19         -3.5900     3.8290     2.5000 h1         1 JCY       0.053033
     48 H20          2.4970     1.3920    -0.9240 hc         1 JCY       0.059200
     49 H21          2.7280     1.5520     0.8070 hc         1 JCY       0.059200
     50 H22          5.0480     2.0270    -3.4580 hc         1 JCY       0.051700
     51 H23          5.1240     0.2700    -3.3850 hc         1 JCY       0.051700
     52 H24          3.6580     1.1060    -2.9000 hc         1 JCY       0.051700
     53 H25          7.8720     2.6020    -2.1840 h1         1 JCY       0.055367
     54 H26          8.5180     1.0530    -1.6150 h1         1 JCY       0.055367
     55 H27          7.4210     1.0960    -2.9960 h1         1 JCY       0.055367
     56 H28          4.9740     0.3500     2.5580 hc         1 JCY       0.046700
     57 H29          6.2440     1.5620     2.7150 hc         1 JCY       0.046700
     58 H30          4.5640     2.0540     2.4920 hc         1 JCY       0.046700
     59 C04         -5.2150     0.5450    -1.7400 c3         1 JCY       0.160500
     60 C08         -3.9310     3.9410     1.4730 c3         1 JCY       0.052600
     61 C29          7.6440     1.5470    -2.0320 c3         1 JCY       0.042600
     62 N02         -6.5050     0.0590    -1.2820 n3         1 JCY      -0.702600
@<TRIPOS>BOND
     1     1     2 ar  
     2     1    16 ar  
     3     1    29 1   
     4     2     3 ar  
     5     2    30 1   
     6     3     4 ar  
     7     3     9 1   
     8     4     8 ar  
     9     4    31 1   
    10     5     6 ar  
    11     5    12 ar  
    12     5    32 1   
    13     6     9 ar  
    14     6    28 1   
    15     7    17 1   
    16     7    28 1   
    17     7    33 1   
    18     7    34 1   
    19     8    15 1   
    20     8    16 ar  
    21     9    10 ar  
    22    10    11 ar  
    23    10    35 1   
    24    11    12 ar  
    25    11    36 1   
    26    12    23 1   
    27    13    37 1   
    28    13    38 1   
    29    13    39 1   
    30    13    62 1   
    31    14    40 1   
    32    14    41 1   
    33    14    42 1   
    34    14    62 1   
    35    15    24 2   
    36    15    59 1   
    37    16    25 1   
    38    17    18 1   
    39    17    48 1   
    40    17    49 1   
    41    18    19 2   
    42    18    21 1   
    43    19    20 1   
    44    19    26 1   
    45    20    50 1   
    46    20    51 1   
    47    20    52 1   
    48    21    22 1   
    49    21    27 2   
    50    22    56 1   
    51    22    57 1   
    52    22    58 1   
    53    24    25 1   
    54    25    60 1   
    55    26    27 1   
    56    26    61 1   
    57    43    59 1   
    58    44    59 1   
    59    45    60 1   
    60    46    60 1   
    61    47    60 1   
    62    53    61 1   
    63    54    61 1   
    64    55    61 1   
    65    59    62 1   
@<TRIPOS>SUBSTRUCTURE
     1 JCY         1 TEMP              0 ****  ****    0 ROOT
