@<TRIPOS>MOLECULE
JCZ
   25    27     1     0     0
SMALL
No Charge or Current Charge


@<TRIPOS>ATOM
      1 C10          4.0780     0.7290     0.0640 cc         1 JCZ      -0.242200
      2 N12          3.3080    -1.4180     0.0050 na         1 JCZ      -0.224700
      3 C13          1.7510     1.8180     0.0680 ca         1 JCZ      -0.069000
      4 C15         -2.5780     0.8230     0.0040 cc         1 JCZ      -0.278000
      5 C02         -3.7410     0.1420    -0.0230 cd         1 JCZ       0.206000
      6 N03         -3.3870    -1.2030    -0.0530 na         1 JCZ      -0.037200
      7 N04         -2.0000    -1.3770    -0.0440 nd         1 JCZ      -0.530800
      8 C05         -1.5390    -0.1320    -0.0090 cc         1 JCZ       0.340500
      9 C06         -0.0950     0.1780     0.0110 ca         1 JCZ      -0.104500
     10 C07          0.8630    -0.8720    -0.0050 ca         1 JCZ      -0.098000
     11 C08          2.2270    -0.5490     0.0160 ca         1 JCZ      -0.056200
     12 C09          2.6480     0.7470     0.0510 ca         1 JCZ      -0.093800
     13 C11          4.4680    -0.6040     0.0350 cd         1 JCZ      -0.163100
     14 C14          0.3710     1.5250     0.0480 ca         1 JCZ      -0.123000
     15 H1           4.7480     1.5870     0.0900 ha         1 JCZ       0.204000
     16 H2           3.2740    -2.4340    -0.0200 hn         1 JCZ       0.348000
     17 H3           2.1060     2.8460     0.0960 ha         1 JCZ       0.113000
     18 H4          -2.4630     1.8980     0.0300 ha         1 JCZ       0.145000
     19 H5          -5.2330     1.5820     0.0640 hn         1 JCZ       0.449000
     20 H6          -5.8150    -0.0630     0.0310 hn         1 JCZ       0.449000
     21 H7          -4.0300    -1.9900    -0.0790 hn         1 JCZ       0.367000
     22 H8           0.5560    -1.9150    -0.0330 ha         1 JCZ       0.129000
     23 H9           5.4700    -1.0300     0.0340 h4         1 JCZ       0.209000
     24 H10         -0.3270     2.3560     0.0620 ha         1 JCZ       0.110000
     25 N01         -5.0310     0.5860    -0.0250 nv         1 JCZ      -1.050000
@<TRIPOS>BOND
     1     1    12 1   
     2     1    13 2   
     3     1    15 1   
     4     2    11 1   
     5     2    13 1   
     6     2    16 1   
     7     3    12 ar  
     8     3    14 ar  
     9     3    17 1   
    10     4     5 2   
    11     4     8 1   
    12     4    18 1   
    13     5     6 1   
    14     5    25 1   
    15     6     7 1   
    16     6    21 1   
    17     7     8 2   
    18     8     9 1   
    19     9    10 ar  
    20     9    14 ar  
    21    10    11 ar  
    22    10    22 1   
    23    11    12 ar  
    24    13    23 1   
    25    14    24 1   
    26    19    25 1   
    27    20    25 1   
@<TRIPOS>SUBSTRUCTURE
     1 JCZ         1 TEMP              0 ****  ****    0 ROOT
