@<TRIPOS>MOLECULE
JCZ
   25    27     1     0     0
SMALL
abcg2


@<TRIPOS>ATOM
      1 C10          4.0960     0.6920     0.0770 cc         1 JCZ      -0.242200
      2 N12          3.2660    -1.3820     0.0170 na         1 JCZ      -0.224700
      3 C13          1.7440     1.8240     0.0660 ca         1 JCZ      -0.069000
      4 C15         -2.5720     0.8890    -0.0350 cc         1 JCZ      -0.278000
      5 C02         -3.7270     0.1300    -0.0700 cd         1 JCZ       0.206000
      6 N03         -3.3250    -1.1540    -0.0850 na         1 JCZ      -0.037200
      7 N04         -1.9910    -1.2910    -0.0590 nd         1 JCZ      -0.530800
      8 C05         -1.5220    -0.0570    -0.0310 cc         1 JCZ       0.340500
      9 C06         -0.0790     0.2030    -0.0000 ca         1 JCZ      -0.104500
     10 C07          0.8250    -0.8510    -0.0090 ca         1 JCZ      -0.098000
     11 C08          2.1830    -0.5510     0.0190 ca         1 JCZ      -0.056200
     12 C09          2.6700     0.7750     0.0570 ca         1 JCZ      -0.093800
     13 C11          4.4100    -0.6370     0.0520 cd         1 JCZ      -0.163100
     14 C14          0.3970     1.5320     0.0380 ca         1 JCZ      -0.123000
     15 H1           4.7980     1.5090     0.1070 ha         1 JCZ       0.204000
     16 H2           3.2340    -2.3870    -0.0050 hn         1 JCZ       0.348000
     17 H3           2.0760     2.8540     0.0950 ha         1 JCZ       0.113000
     18 H4          -2.5140     1.9650    -0.0130 ha         1 JCZ       0.145000
     19 H5          -5.2250     1.4400     0.1370 hn         1 JCZ       0.449000
     20 H6          -5.6980    -0.1430     0.2770 hn         1 JCZ       0.449000
     21 H7          -3.9100    -1.9740    -0.1200 hn         1 JCZ       0.367000
     22 H8           0.4800    -1.8760    -0.0390 ha         1 JCZ       0.129000
     23 H9           5.3750    -1.1180     0.0560 h4         1 JCZ       0.209000
     24 H10         -0.3150     2.3470     0.0450 ha         1 JCZ       0.110000
     25 N01         -5.0480     0.4930    -0.1590 nv         1 JCZ      -1.050000
@<TRIPOS>BOND
     1     1    12 1   
     2     1    13 2   
     3     1    15 1   
     4     2    11 1   
     5     2    13 1   
     6     2    16 1   
     7     3    12 ar  
     8     3    14 ar  
     9     3    17 1   
    10     4     5 2   
    11     4     8 1   
    12     4    18 1   
    13     5     6 1   
    14     5    25 1   
    15     6     7 1   
    16     6    21 1   
    17     7     8 2   
    18     8     9 1   
    19     9    10 ar  
    20     9    14 ar  
    21    10    11 ar  
    22    10    22 1   
    23    11    12 ar  
    24    13    23 1   
    25    14    24 1   
    26    19    25 1   
    27    20    25 1   
@<TRIPOS>SUBSTRUCTURE
     1 JCZ         1 TEMP              0 ****  ****    0 ROOT
