@<TRIPOS>MOLECULE
JD2
   38    41     1     0     0
SMALL
abcg2


@<TRIPOS>ATOM
      1 C10          0.8520    -1.2720    -0.2160 ca         1 JD2      -0.041200
      2 C13          3.5400     0.7030    -0.5640 ca         1 JD2       0.313300
      3 C15          3.4320     2.1950     1.1560 ca         1 JD2       0.343900
      4 C17          5.5280     1.8580     0.0840 ca         1 JD2      -0.073000
      5 C20          1.8300    -3.2280     0.4330 cc         1 JD2      -0.239200
      6 C21         -0.1250    -0.2940    -0.3590 ca         1 JD2      -0.072000
      7 C22         -3.8330     0.2810    -0.0340 cc         1 JD2      -0.228000
      8 C02         -4.3690     1.5670    -0.1580 cd         1 JD2       0.290000
      9 N03         -3.3170     2.3910    -0.1230 na         1 JD2      -0.047200
     10 N04         -2.1370     1.7540     0.0190 nd         1 JD2      -0.517800
     11 C05         -2.4230     0.4780     0.0720 cc         1 JD2       0.397500
     12 C06         -1.3740    -0.5360     0.1960 ca         1 JD2      -0.129500
     13 C07         -1.6210    -1.7350     0.8980 ca         1 JD2      -0.112000
     14 C08         -0.6440    -2.6940     1.0490 ca         1 JD2      -0.071000
     15 C09          0.6190    -2.4760     0.4870 ca         1 JD2      -0.086800
     16 N11          2.1360    -1.3090    -0.6890 na         1 JD2      -0.083700
     17 C12          2.8050    -0.2770    -1.4430 c3         1 JD2       0.033300
     18 N14          2.8210     1.3230     0.3660 nb         1 JD2      -0.647000
     19 C16          4.7820     2.5030     1.0570 ca         1 JD2      -0.159000
     20 C18          4.8970     0.9390    -0.7410 ca         1 JD2      -0.152000
     21 C19          2.7170    -2.4810    -0.2840 cd         1 JD2      -0.159100
     22 C23         -4.5720    -0.9070    -0.0910 cg         1 JD2       0.377000
     23 N24         -5.2040    -1.8740    -0.1430 n1         1 JD2      -0.493000
     24 H1           2.8160     2.6800     1.9060 h4         1 JD2       0.025100
     25 H2           6.5850     2.0630    -0.0300 ha         1 JD2       0.120000
     26 H3           2.0170    -4.2000     0.8600 ha         1 JD2       0.205000
     27 H4           0.0710     0.6310    -0.8830 ha         1 JD2       0.130000
     28 H5          -5.8330     2.8890    -0.6180 hn         1 JD2       0.477500
     29 H6          -6.3280     1.2840    -0.5250 hn         1 JD2       0.477500
     30 H7          -3.3360     3.3980    -0.1640 hn         1 JD2       0.372000
     31 H8          -2.5890    -1.8990     1.3550 ha         1 JD2       0.119000
     32 H9          -0.8520    -3.6020     1.6010 ha         1 JD2       0.116000
     33 H10          2.0640     0.2500    -2.0470 h1         1 JD2       0.068200
     34 H11          3.4950    -0.7520    -2.1410 h1         1 JD2       0.068200
     35 H12          5.2290     3.2260     1.7250 ha         1 JD2       0.126000
     36 H13          5.4500     0.4090    -1.5050 ha         1 JD2       0.121000
     37 H14          3.7390    -2.6990    -0.5560 h4         1 JD2       0.207000
     38 N01         -5.6530     1.9740    -0.2350 nv         1 JD2      -1.075000
@<TRIPOS>BOND
     1     1     6 ar  
     2     1    15 ar  
     3     1    16 1   
     4     2    17 1   
     5     2    18 ar  
     6     2    20 ar  
     7     3    18 ar  
     8     3    19 ar  
     9     3    24 1   
    10     4    19 ar  
    11     4    20 ar  
    12     4    25 1   
    13     5    15 1   
    14     5    21 2   
    15     5    26 1   
    16     6    12 ar  
    17     6    27 1   
    18     7     8 2   
    19     7    11 1   
    20     7    22 1   
    21     8     9 1   
    22     8    38 1   
    23     9    10 1   
    24     9    30 1   
    25    10    11 2   
    26    11    12 1   
    27    12    13 ar  
    28    13    14 ar  
    29    13    31 1   
    30    14    15 ar  
    31    14    32 1   
    32    16    17 1   
    33    16    21 1   
    34    17    33 1   
    35    17    34 1   
    36    19    35 1   
    37    20    36 1   
    38    21    37 1   
    39    22    23 3   
    40    28    38 1   
    41    29    38 1   
@<TRIPOS>SUBSTRUCTURE
     1 JD2         1 TEMP              0 ****  ****    0 ROOT
