@<TRIPOS>MOLECULE
JD2
   38    41     1     0     0
SMALL
No Charge or Current Charge


@<TRIPOS>ATOM
      1 C10          1.0970    -1.5140    -0.5730 ca         1 JD2      -0.041200
      2 C13          3.3030     0.8070    -0.7420 ca         1 JD2       0.313300
      3 C15          3.2820     3.1060    -0.4000 ca         1 JD2       0.343900
      4 C17          3.9700     1.6740     1.4290 ca         1 JD2      -0.073000
      5 C20          1.9550    -3.5700    -0.2140 cc         1 JD2      -0.239200
      6 C21          0.1610    -0.4670    -0.5470 ca         1 JD2      -0.072000
      7 C22         -3.4830     0.4200     0.3740 cc         1 JD2      -0.228000
      8 C02         -3.9130     1.7020     0.3330 cd         1 JD2       0.290000
      9 N03         -2.8000     2.4680     0.0210 na         1 JD2      -0.047200
     10 N04         -1.6600     1.6860    -0.1430 nd         1 JD2      -0.517800
     11 C05         -2.0920     0.4470     0.0720 cc         1 JD2       0.397500
     12 C06         -1.1230    -0.6840     0.0330 ca         1 JD2      -0.129500
     13 C07         -1.3810    -1.9650     0.6100 ca         1 JD2      -0.112000
     14 C08         -0.4210    -2.9980     0.5700 ca         1 JD2      -0.071000
     15 C09          0.8070    -2.7330    -0.0370 ca         1 JD2      -0.086800
     16 N11          2.3870    -1.5170    -1.0910 na         1 JD2      -0.083700
     17 C12          3.0470    -0.3500    -1.7040 c3         1 JD2       0.033300
     18 N14          3.0750     2.0530    -1.2240 nb         1 JD2      -0.647000
     19 C16          3.7260     2.9620     0.9260 ca         1 JD2      -0.159000
     20 C18          3.7540     0.5800     0.5760 ca         1 JD2      -0.152000
     21 C19          2.9190    -2.8070    -0.8630 cd         1 JD2      -0.159100
     22 C23         -4.2970    -0.7160     0.5960 cg         1 JD2       0.377000
     23 N24         -4.9970    -1.6330     0.7740 n1         1 JD2      -0.493000
     24 H1           3.0880     4.0940    -0.8150 h4         1 JD2       0.025100
     25 H2           4.3150     1.5280     2.4500 ha         1 JD2       0.120000
     26 H3           2.0700    -4.6060     0.0990 ha         1 JD2       0.205000
     27 H4           0.4230     0.4920    -0.9870 ha         1 JD2       0.130000
     28 H5          -5.3300     3.2340     0.3300 hn         1 JD2       0.477500
     29 H6          -5.9680     1.6440     0.6430 hn         1 JD2       0.477500
     30 H7          -2.7820     3.4780    -0.0840 hn         1 JD2       0.372000
     31 H8          -2.3050    -2.1840     1.1280 ha         1 JD2       0.119000
     32 H9          -0.6270    -3.9700     1.0120 ha         1 JD2       0.116000
     33 H10          2.4240    -0.0040    -2.5380 h1         1 JD2       0.068200
     34 H11          4.0070    -0.6730    -2.1230 h1         1 JD2       0.068200
     35 H12          3.8780     3.8400     1.5470 ha         1 JD2       0.126000
     36 H13          3.9320    -0.4320     0.9300 ha         1 JD2       0.121000
     37 H14          3.9260    -3.0780    -1.1700 h4         1 JD2       0.207000
     38 N01         -5.1540     2.2470     0.5200 nv         1 JD2      -1.075000
@<TRIPOS>BOND
     1     1     6 ar  
     2     1    15 ar  
     3     1    16 1   
     4     2    17 1   
     5     2    18 ar  
     6     2    20 ar  
     7     3    18 ar  
     8     3    19 ar  
     9     3    24 1   
    10     4    19 ar  
    11     4    20 ar  
    12     4    25 1   
    13     5    15 1   
    14     5    21 2   
    15     5    26 1   
    16     6    12 ar  
    17     6    27 1   
    18     7     8 2   
    19     7    11 1   
    20     7    22 1   
    21     8     9 1   
    22     8    38 1   
    23     9    10 1   
    24     9    30 1   
    25    10    11 2   
    26    11    12 1   
    27    12    13 ar  
    28    13    14 ar  
    29    13    31 1   
    30    14    15 ar  
    31    14    32 1   
    32    16    17 1   
    33    16    21 1   
    34    17    33 1   
    35    17    34 1   
    36    19    35 1   
    37    20    36 1   
    38    21    37 1   
    39    22    23 3   
    40    28    38 1   
    41    29    38 1   
@<TRIPOS>SUBSTRUCTURE
     1 JD2         1 TEMP              0 ****  ****    0 ROOT
