@<TRIPOS>MOLECULE
JD3
   29    30     1     0     0
SMALL
No Charge or Current Charge


@<TRIPOS>ATOM
      1 C09          4.8580    39.4620   149.7140 cc         1 JD3      -0.145100
      2 C11          6.4840    38.1030   150.5740 ca         1 JD3      -0.052200
      3 C13          7.2850    39.3400   152.4950 ca         1 JD3      -0.040000
      4 C15          8.2510    37.1600   151.9110 ca         1 JD3      -0.109000
      5 C02          2.6550    40.4370   151.9290 c          1 JD3       0.691000
      6 C04          3.4650    41.6680   151.3420 c3         1 JD3       0.023500
      7 C06          5.0060    41.4080   151.4200 c3         1 JD3       0.025500
      8 C07          5.8470    42.5160   150.7380 c3         1 JD3      -0.072100
      9 C08          5.4040    40.0610   150.8470 cd         1 JD3      -0.087400
     10 C12          6.4360    39.2000   151.3870 ca         1 JD3      -0.077800
     11 C14          8.2030    38.2980   152.7530 ca         1 JD3      -0.166000
     12 C16          7.3830    37.0540   150.8030 ca         1 JD3      -0.142000
     13 N05          3.0890    43.0130   151.9290 n8         1 JD3      -1.007200
     14 N10          5.5460    38.2390   149.5680 na         1 JD3      -0.234700
     15 H1           4.0750    39.7900   149.0360 h4         1 JD3       0.215000
     16 H2           7.2420    40.2190   153.1340 ha         1 JD3       0.116000
     17 H3           8.9630    36.3630   152.1190 ha         1 JD3       0.089000
     18 H4           3.2070    41.7220   150.2750 h1         1 JD3       0.033700
     19 H5           5.2720    41.4160   152.4840 hc         1 JD3       0.062700
     20 H6           5.6900    43.4910   151.2130 hc         1 JD3       0.018367
     21 H7           6.9160    42.2820   150.8090 hc         1 JD3       0.018367
     22 H8           5.5880    42.6010   149.6760 hc         1 JD3       0.018367
     23 H9           8.8770    38.3710   153.6030 ha         1 JD3       0.093000
     24 H10          7.4130    36.1850   150.1500 ha         1 JD3       0.095000
     25 H11          2.0810    43.1620   151.7990 hn         1 JD3       0.383000
     26 H12          3.1870    42.9570   152.9510 hn         1 JD3       0.383000
     27 H14          5.3840    37.5580   148.8330 hn         1 JD3       0.334000
     28 O01          1.8430    39.8800   151.2020 o          1 JD3      -0.732500
     29 O03          2.7500    40.1950   153.1260 o          1 JD3      -0.732500
@<TRIPOS>BOND
     1     1     9 2   
     2     1    14 1   
     3     1    15 1   
     4     2    10 ar  
     5     2    12 ar  
     6     2    14 1   
     7     3    10 ar  
     8     3    11 ar  
     9     3    16 1   
    10     4    11 ar  
    11     4    12 ar  
    12     4    17 1   
    13     5     6 1   
    14     5    28 1   
    15     5    29 1   
    16     6     7 1   
    17     6    13 1   
    18     6    18 1   
    19     7     8 1   
    20     7     9 1   
    21     7    19 1   
    22     8    20 1   
    23     8    21 1   
    24     8    22 1   
    25     9    10 1   
    26    11    23 1   
    27    12    24 1   
    28    13    25 1   
    29    13    26 1   
    30    14    27 1   
@<TRIPOS>SUBSTRUCTURE
     1 JD3         1 TEMP              0 ****  ****    0 ROOT
