@<TRIPOS>MOLECULE
JD3
   29    30     1     0     0
SMALL
bcc


@<TRIPOS>ATOM
      1 C09          4.9940    39.5140   149.6840 cc         1 JD3      -0.095100
      2 C11          6.5040    38.1150   150.5370 ca         1 JD3      -0.052200
      3 C13          7.1980    39.2790   152.5450 ca         1 JD3      -0.058000
      4 C15          8.1330    37.1220   151.9490 ca         1 JD3      -0.127000
      5 C02          2.7970    40.4450   152.0620 c          1 JD3       0.901600
      6 C04          3.4860    41.6300   151.3450 c3         1 JD3       0.023500
      7 C06          5.0120    41.4580   151.3680 c3         1 JD3       0.025500
      8 C07          5.7380    42.5820   150.6270 c3         1 JD3      -0.072100
      9 C08          5.4260    40.1200   150.8300 cd         1 JD3      -0.087400
     10 C12          6.4030    39.2360   151.3930 ca         1 JD3      -0.077800
     11 C14          8.0520    38.2270   152.8120 ca         1 JD3      -0.184000
     12 C16          7.3630    37.0500   150.8030 ca         1 JD3      -0.160000
     13 N05          3.1300    42.9180   151.9440 n8         1 JD3      -0.896800
     14 N10          5.6370    38.3180   149.5050 na         1 JD3      -0.184400
     15 H1           4.2600    39.8450   148.9660 h4         1 JD3       0.165000
     16 H2           7.1430    40.1270   153.2180 ha         1 JD3       0.134000
     17 H3           8.8110    36.3120   152.1850 ha         1 JD3       0.107000
     18 H4           3.1570    41.6580   150.3000 h1         1 JD3       0.033700
     19 H5           5.3160    41.4980   152.4210 hc         1 JD3       0.062700
     20 H6           5.5390    43.5530   151.0780 hc         1 JD3       0.018367
     21 H7           6.8170    42.4210   150.6410 hc         1 JD3       0.018367
     22 H8           5.4240    42.6240   149.5820 hc         1 JD3       0.018367
     23 H9           8.6710    38.2510   153.7010 ha         1 JD3       0.111000
     24 H10          7.4260    36.1970   150.1380 ha         1 JD3       0.113000
     25 H11          2.1360    43.0740   151.8250 hn         1 JD3       0.327800
     26 H12          3.2670    42.8380   152.9460 hn         1 JD3       0.327800
     27 H14          5.4750    37.6840   148.7410 hn         1 JD3       0.283700
     28 O01          2.0010    39.7470   151.4030 o          1 JD3      -0.837800
     29 O03          3.0830    40.3070   153.2730 o          1 JD3      -0.837800
@<TRIPOS>BOND
     1     1     9 2   
     2     1    14 1   
     3     1    15 1   
     4     2    10 ar  
     5     2    12 ar  
     6     2    14 1   
     7     3    10 ar  
     8     3    11 ar  
     9     3    16 1   
    10     4    11 ar  
    11     4    12 ar  
    12     4    17 1   
    13     5     6 1   
    14     5    28 1   
    15     5    29 1   
    16     6     7 1   
    17     6    13 1   
    18     6    18 1   
    19     7     8 1   
    20     7     9 1   
    21     7    19 1   
    22     8    20 1   
    23     8    21 1   
    24     8    22 1   
    25     9    10 1   
    26    11    23 1   
    27    12    24 1   
    28    13    25 1   
    29    13    26 1   
    30    14    27 1   
@<TRIPOS>SUBSTRUCTURE
     1 JD3         1 TEMP              0 ****  ****    0 ROOT
