@<TRIPOS>MOLECULE
JD6
   24    25     1     0     0
SMALL
abcg2


@<TRIPOS>ATOM
      1 N1          91.9770    -7.2610    15.5880 nb         1 JD6      -0.652000
      2 N2          91.3340    -9.7570    14.5310 nb         1 JD6      -0.627000
      3 C3          92.6360    -7.7340    14.5010 ca         1 JD6       0.276000
      4 C4          92.3030    -9.0000    13.9720 ca         1 JD6       0.185000
      5 C5          91.0440    -8.0020    16.1180 ca         1 JD6       0.334300
      6 C6          90.7100    -9.2890    15.5770 ca         1 JD6       0.301300
      7 C7          93.6450    -6.9600    13.9060 ca         1 JD6      -0.176000
      8 C8          93.0050    -9.4640    12.8380 ca         1 JD6      -0.037000
      9 C9          94.3290    -7.4270    12.7980 ca         1 JD6       0.310000
     10 N10         95.3550    -6.7220    12.2260 nv         1 JD6      -1.080000
     11 C11         93.9870    -8.7050    12.2720 ca         1 JD6      -0.158000
     12 C12         90.3180    -7.4830    17.3180 c3         1 JD6      -0.147400
     13 C13         89.6350   -10.1190    16.2030 c3         1 JD6      -0.141400
     14 H14         93.8760    -5.9900    14.3310 ha         1 JD6       0.131000
     15 H15         92.7520   -10.4330    12.4260 ha         1 JD6       0.130000
     16 H16         95.5680    -6.9300    11.2640 hn         1 JD6       0.458000
     17 H17         95.3950    -5.7360    12.4290 hn         1 JD6       0.458000
     18 H18         94.5210    -9.0740    11.4040 ha         1 JD6       0.116000
     19 H21         90.6960    -6.5010    17.5920 hc         1 JD6       0.053700
     20 H20         89.2460    -7.4020    17.1290 hc         1 JD6       0.053700
     21 H19         90.4370    -8.1520    18.1720 hc         1 JD6       0.053700
     22 H23         89.5210   -11.0570    15.6630 hc         1 JD6       0.052033
     23 H22         89.8640   -10.3480    17.2460 hc         1 JD6       0.052033
     24 H24         88.6750    -9.6000    16.1990 hc         1 JD6       0.052033
@<TRIPOS>BOND
     1     1     3 ar  
     2     1     5 ar  
     3     2     4 ar  
     4     2     6 ar  
     5     3     4 ar  
     6     3     7 ar  
     7     4     8 ar  
     8     5     6 ar  
     9     5    12 1   
    10     6    13 1   
    11     7     9 ar  
    12     7    14 1   
    13     8    11 ar  
    14     8    15 1   
    15     9    10 1   
    16     9    11 ar  
    17    10    16 1   
    18    10    17 1   
    19    11    18 1   
    20    12    19 1   
    21    12    20 1   
    22    12    21 1   
    23    13    22 1   
    24    13    23 1   
    25    13    24 1   
@<TRIPOS>SUBSTRUCTURE
     1 JD6         1 TEMP              0 ****  ****    0 ROOT
