@<TRIPOS>MOLECULE
JD6
   24    25     1     0     0
SMALL
No Charge or Current Charge


@<TRIPOS>ATOM
      1 N1          91.9880    -7.2280    15.5860 nb         1 JD6      -0.652000
      2 N2          91.3290    -9.7940    14.5090 nb         1 JD6      -0.627000
      3 C3          92.6280    -7.7260    14.4970 ca         1 JD6       0.276000
      4 C4          92.2970    -9.0150    13.9560 ca         1 JD6       0.185000
      5 C5          91.0220    -8.0090    16.1360 ca         1 JD6       0.334300
      6 C6          90.6920    -9.2910    15.5990 ca         1 JD6       0.301300
      7 C7          93.6360    -6.9600    13.8880 ca         1 JD6      -0.176000
      8 C8          92.9980    -9.4750    12.8260 ca         1 JD6      -0.037000
      9 C9          94.3190    -7.4360    12.7640 ca         1 JD6       0.310000
     10 N10         95.2980    -6.6760    12.1850 nv         1 JD6      -1.080000
     11 C11         94.0020    -8.6910    12.2330 ca         1 JD6      -0.158000
     12 C12         90.3160    -7.4320    17.3570 c3         1 JD6      -0.147400
     13 C13         89.6110   -10.1760    16.2060 c3         1 JD6      -0.141400
     14 H14         93.8850    -5.9870    14.2990 ha         1 JD6       0.131000
     15 H15         92.7580   -10.4490    12.4060 ha         1 JD6       0.130000
     16 H16         95.7000    -6.9580    11.2920 hn         1 JD6       0.458000
     17 H17         95.4380    -5.7100    12.4790 hn         1 JD6       0.458000
     18 H18         94.5320    -9.0660    11.3610 ha         1 JD6       0.116000
     19 H21         90.7020    -6.4410    17.6230 hc         1 JD6       0.053700
     20 H20         89.2400    -7.3290    17.1730 hc         1 JD6       0.053700
     21 H19         90.4500    -8.0830    18.2280 hc         1 JD6       0.053700
     22 H23         89.4990   -11.1200    15.6590 hc         1 JD6       0.052033
     23 H22         89.8490   -10.4240    17.2470 hc         1 JD6       0.052033
     24 H24         88.6390    -9.6700    16.1930 hc         1 JD6       0.052033
@<TRIPOS>BOND
     1     1     3 ar  
     2     1     5 ar  
     3     2     4 ar  
     4     2     6 ar  
     5     3     4 ar  
     6     3     7 ar  
     7     4     8 ar  
     8     5     6 ar  
     9     5    12 1   
    10     6    13 1   
    11     7     9 ar  
    12     7    14 1   
    13     8    11 ar  
    14     8    15 1   
    15     9    10 1   
    16     9    11 ar  
    17    10    16 1   
    18    10    17 1   
    19    11    18 1   
    20    12    19 1   
    21    12    20 1   
    22    12    21 1   
    23    13    22 1   
    24    13    23 1   
    25    13    24 1   
@<TRIPOS>SUBSTRUCTURE
     1 JD6         1 TEMP              0 ****  ****    0 ROOT
