@<TRIPOS>MOLECULE
JD7
   30    32     1     0     0
SMALL
abcg2


@<TRIPOS>ATOM
      1 C01          2.8750     2.1120    -0.0740 c6         1 JD7      -0.078400
      2 C02          1.3620     1.9560    -0.1490 c6         1 JD7      -0.085400
      3 C03          0.8960     0.7090     0.6040 c6         1 JD7       0.132600
      4 N04          1.7280    -0.4280     0.2310 na         1 JD7      -0.171500
      5 C05          1.4980    -1.7300     0.5260 cc         1 JD7       0.393400
      6 N06          2.4990    -2.4900     0.1710 nd         1 JD7      -0.669000
      7 C07          3.4270    -1.6420    -0.3660 cd         1 JD7       0.231900
      8 C08          2.9750    -0.3520    -0.3370 cc         1 JD7      -0.200300
      9 C09          3.5530     0.9460    -0.7870 c6         1 JD7       0.000900
     10 C10         -0.5630     0.4320     0.3480 ca         1 JD7      -0.091300
     11 C11         -1.5010     0.7160     1.3350 ca         1 JD7      -0.097500
     12 C12         -2.8520     0.5210     1.1050 ca         1 JD7      -0.073000
     13 C13         -3.2710     0.0290    -0.1290 ca         1 JD7      -0.007000
     14 C14         -2.3390    -0.2610    -1.1270 ca         1 JD7      -0.073000
     15 C15         -0.9950    -0.0570    -0.8840 ca         1 JD7      -0.097500
     16 C16         -4.6610    -0.1810    -0.3740 cg         1 JD7       0.319000
     17 N17         -5.7830    -0.3530    -0.5710 n1         1 JD7      -0.442000
     18 H2           3.1760     3.0530    -0.5340 hc         1 JD7       0.051200
     19 H1           3.1910     2.1530     0.9730 hc         1 JD7       0.051200
     20 H3           0.8550     2.8180     0.2840 hc         1 JD7       0.058200
     21 H4           1.0500     1.8940    -1.1970 hc         1 JD7       0.058200
     22 H5           1.0340     0.8870     1.6750 h1         1 JD7       0.066700
     23 H6           0.5860    -2.0640     0.9970 h5         1 JD7       0.057100
     24 H7           4.3720    -1.9960    -0.7510 h4         1 JD7       0.037100
     25 H9           3.4130     1.0590    -1.8670 hc         1 JD7       0.057200
     26 H8           4.6300     0.9500    -0.6140 hc         1 JD7       0.057200
     27 H10         -1.1730     1.0920     2.2960 ha         1 JD7       0.126500
     28 H11         -3.5750     0.7420     1.8780 ha         1 JD7       0.130500
     29 H12         -2.6690    -0.6410    -2.0840 ha         1 JD7       0.130500
     30 H13         -0.2780    -0.2800    -1.6640 ha         1 JD7       0.126500
@<TRIPOS>BOND
     1     1     2 1   
     2     1     9 1   
     3     1    18 1   
     4     1    19 1   
     5     2     3 1   
     6     2    20 1   
     7     2    21 1   
     8     3     4 1   
     9     3    10 1   
    10     3    22 1   
    11     4     5 1   
    12     4     8 1   
    13     5     6 2   
    14     5    23 1   
    15     6     7 1   
    16     7     8 2   
    17     7    24 1   
    18     8     9 1   
    19     9    25 1   
    20     9    26 1   
    21    10    11 ar  
    22    10    15 ar  
    23    11    12 ar  
    24    11    27 1   
    25    12    13 ar  
    26    12    28 1   
    27    13    14 ar  
    28    13    16 1   
    29    14    15 ar  
    30    14    29 1   
    31    15    30 1   
    32    16    17 3   
@<TRIPOS>SUBSTRUCTURE
     1 JD7         1 TEMP              0 ****  ****    0 ROOT
