@<TRIPOS>MOLECULE
JD7
   30    32     1     0     0
SMALL
No Charge or Current Charge


@<TRIPOS>ATOM
      1 C01          2.9460     2.1190    -0.1020 c6         1 JD7      -0.078400
      2 C02          1.3940     2.0100    -0.0700 c6         1 JD7      -0.085400
      3 C03          0.8950     0.7240     0.6620 c6         1 JD7       0.132600
      4 N04          1.7400    -0.4360     0.2970 na         1 JD7      -0.171500
      5 C05          1.5310    -1.7580     0.6260 cc         1 JD7       0.393400
      6 N06          2.5320    -2.5120     0.1810 nd         1 JD7      -0.669000
      7 C07          3.4160    -1.6430    -0.4340 cd         1 JD7       0.231900
      8 C08          2.9410    -0.3590    -0.3630 cc         1 JD7      -0.200300
      9 C09          3.5760     0.9160    -0.8550 c6         1 JD7       0.000900
     10 C10         -0.5890     0.4650     0.3650 ca         1 JD7      -0.091300
     11 C11         -1.5600     0.7430     1.3460 ca         1 JD7      -0.097500
     12 C12         -2.9220     0.5110     1.0850 ca         1 JD7      -0.073000
     13 C13         -3.3270    -0.0010    -0.1630 ca         1 JD7      -0.007000
     14 C14         -2.3590    -0.2770    -1.1480 ca         1 JD7      -0.073000
     15 C15         -0.9980    -0.0440    -0.8860 ca         1 JD7      -0.097500
     16 C16         -4.7190    -0.2390    -0.4310 cg         1 JD7       0.319000
     17 N17         -5.8520    -0.4230    -0.6440 n1         1 JD7      -0.442000
     18 H2           3.2500     3.0590    -0.5810 hc         1 JD7       0.051200
     19 H1           3.3310     2.1530     0.9270 hc         1 JD7       0.051200
     20 H3           0.9640     2.8970     0.4140 hc         1 JD7       0.058200
     21 H4           1.0210     2.0150    -1.1030 hc         1 JD7       0.058200
     22 H5           1.0190     0.8800     1.7430 h1         1 JD7       0.066700
     23 H6           0.6570    -2.0940     1.1710 h5         1 JD7       0.057100
     24 H7           4.3410    -1.9880    -0.8810 h4         1 JD7       0.037100
     25 H9           3.4120     1.0290    -1.9350 hc         1 JD7       0.057200
     26 H8           4.6640     0.9060    -0.7020 hc         1 JD7       0.057200
     27 H10         -1.2630     1.1400     2.3140 ha         1 JD7       0.126500
     28 H11         -3.6610     0.7290     1.8530 ha         1 JD7       0.130500
     29 H12         -2.6590    -0.6700    -2.1170 ha         1 JD7       0.130500
     30 H13         -0.2610    -0.2580    -1.6570 ha         1 JD7       0.126500
@<TRIPOS>BOND
     1     1     2 1   
     2     1     9 1   
     3     1    18 1   
     4     1    19 1   
     5     2     3 1   
     6     2    20 1   
     7     2    21 1   
     8     3     4 1   
     9     3    10 1   
    10     3    22 1   
    11     4     5 1   
    12     4     8 1   
    13     5     6 2   
    14     5    23 1   
    15     6     7 1   
    16     7     8 2   
    17     7    24 1   
    18     8     9 1   
    19     9    25 1   
    20     9    26 1   
    21    10    11 ar  
    22    10    15 ar  
    23    11    12 ar  
    24    11    27 1   
    25    12    13 ar  
    26    12    28 1   
    27    13    14 ar  
    28    13    16 1   
    29    14    15 ar  
    30    14    29 1   
    31    15    30 1   
    32    16    17 3   
@<TRIPOS>SUBSTRUCTURE
     1 JD7         1 TEMP              0 ****  ****    0 ROOT
