@<TRIPOS>MOLECULE
JD8
   47    50     1     0     0
SMALL
bcc


@<TRIPOS>ATOM
      1 C10          1.0440     3.0040    -0.2580 ca         1 JD8      -0.087000
      2 C13         -2.4160     2.6290     0.7440 cc         1 JD8      -0.087100
      3 C15         -2.5830     0.2430     1.4920 c3         1 JD8       0.055300
      4 C17         -3.4980    -2.0480     0.9190 c6         1 JD8      -0.106400
      5 C20         -3.9270    -1.0620    -1.7660 c6         1 JD8       0.161800
      6 C24          4.2420     0.2110    -1.6200 cg         1 JD8       0.287800
      7 C02          4.5090    -1.6260     0.0290 cd         1 JD8       0.205300
      8 N03          3.7810    -2.0120     1.0810 na         1 JD8      -0.047600
      9 N04          2.7130    -1.2240     1.3180 nd         1 JD8      -0.526800
     10 C05          2.7400    -0.2980     0.3930 cc         1 JD8       0.464800
     11 C06          1.7030     0.7330     0.3160 ca         1 JD8      -0.127500
     12 C07          0.4160     0.4360     0.7460 ca         1 JD8      -0.107000
     13 C08         -0.5480     1.4340     0.6650 ca         1 JD8      -0.057200
     14 C09         -0.2600     2.7240     0.1620 ca         1 JD8      -0.078800
     15 C11          2.0050     2.0180    -0.1790 ca         1 JD8      -0.132000
     16 C12         -1.4730     3.4690     0.2240 cd         1 JD8      -0.199200
     17 N14         -1.8690     1.4080     1.0210 na         1 JD8      -0.046400
     18 C16         -2.9310    -0.7350     0.3730 c6         1 JD8       0.150500
     19 C18         -3.6980    -3.0370    -0.2290 c6         1 JD8      -0.072400
     20 C19         -4.5140    -2.4150    -1.3610 c6         1 JD8      -0.113400
     21 N21         -3.7770    -0.1340    -0.6520 n3         1 JD8      -0.701600
     22 C23          3.8620    -0.4890    -0.4680 cc         1 JD8      -0.292300
     23 N25          4.5750     0.7720    -2.5750 n1         1 JD8      -0.401800
     24 H1           1.3050     3.9860    -0.6340 ha         1 JD8       0.134000
     25 H2          -3.4570     2.8180     0.9540 h4         1 JD8       0.158000
     26 H3          -1.9630    -0.2720     2.2290 h1         1 JD8       0.057700
     27 H4          -3.4720     0.5770     2.0280 h1         1 JD8       0.057700
     28 H5          -2.8170    -2.4680     1.6640 hc         1 JD8       0.044700
     29 H6          -4.4480    -1.8660     1.4320 hc         1 JD8       0.044700
     30 H7          -2.9380    -1.2200    -2.2100 h1         1 JD8       0.056200
     31 H8          -4.5450    -0.5900    -2.5340 h1         1 JD8       0.056200
     32 H12          6.0540    -2.9270     0.1840 hn         1 JD8       0.423800
     33 H13          6.2110    -1.7800    -1.0380 hn         1 JD8       0.423800
     34 H14          3.9630    -2.7970     1.6870 hn         1 JD8       0.321700
     35 H15          0.1820    -0.5530     1.1190 ha         1 JD8       0.140000
     36 H16          3.0170     2.2520    -0.4830 ha         1 JD8       0.136000
     37 H17         -1.6300     4.4950    -0.0700 ha         1 JD8       0.155000
     38 H18         -1.9870    -0.9850    -0.1310 h1         1 JD8       0.073700
     39 H19         -2.7160    -3.3310    -0.6160 hc         1 JD8       0.042200
     40 H20         -4.1760    -3.9500     0.1300 hc         1 JD8       0.042200
     41 H21         -5.5540    -2.2940    -1.0450 hc         1 JD8       0.044200
     42 H22         -4.5310    -3.0800    -2.2280 hc         1 JD8       0.044200
     43 C22         -5.0600     0.3540    -0.1830 c3         1 JD8       0.149100
     44 N01          5.5830    -2.2920    -0.4400 nv         1 JD8      -0.828200
     45 H9          -4.9360     1.1660     0.5330 h1         1 JD8       0.028367
     46 H10         -5.6100     0.7650    -1.0300 h1         1 JD8       0.028367
     47 H11         -5.7040    -0.3970     0.2920 h1         1 JD8       0.028367
@<TRIPOS>BOND
     1     1    14 ar  
     2     1    15 ar  
     3     1    24 1   
     4     2    16 2   
     5     2    17 1   
     6     2    25 1   
     7     3    17 1   
     8     3    18 1   
     9     3    26 1   
    10     3    27 1   
    11     4    18 1   
    12     4    19 1   
    13     4    28 1   
    14     4    29 1   
    15     5    20 1   
    16     5    21 1   
    17     5    30 1   
    18     5    31 1   
    19     6    22 1   
    20     6    23 3   
    21     7     8 1   
    22     7    22 2   
    23     7    44 1   
    24     8     9 1   
    25     8    34 1   
    26     9    10 2   
    27    10    11 1   
    28    10    22 1   
    29    11    12 ar  
    30    11    15 ar  
    31    12    13 ar  
    32    12    35 1   
    33    13    14 ar  
    34    13    17 1   
    35    14    16 1   
    36    15    36 1   
    37    16    37 1   
    38    18    21 1   
    39    18    38 1   
    40    19    20 1   
    41    19    39 1   
    42    19    40 1   
    43    20    41 1   
    44    20    42 1   
    45    21    43 1   
    46    32    44 1   
    47    33    44 1   
    48    43    45 1   
    49    43    46 1   
    50    43    47 1   
@<TRIPOS>SUBSTRUCTURE
     1 JD8         1 TEMP              0 ****  ****    0 ROOT
