@<TRIPOS>MOLECULE
JD8
   47    50     1     0     0
SMALL
No Charge or Current Charge


@<TRIPOS>ATOM
      1 C10          1.1240     3.0970    -0.2400 ca         1 JD8      -0.069000
      2 C13         -2.4280     2.8010     0.7230 cc         1 JD8      -0.137100
      3 C15         -2.5550     0.3110     1.4020 c3         1 JD8       0.084600
      4 C17         -3.4660    -2.0510     0.9440 c6         1 JD8      -0.106400
      5 C20         -4.1490    -1.2170    -1.7970 c6         1 JD8       0.161800
      6 C24          4.6600     0.5010    -1.2280 cg         1 JD8       0.377000
      7 C02          4.5860    -1.6250     0.0120 cd         1 JD8       0.293000
      8 N03          3.6250    -2.2460     0.7950 na         1 JD8      -0.047200
      9 N04          2.4780    -1.4660     0.9260 nd         1 JD8      -0.526800
     10 C05          2.7540    -0.3750     0.2170 cc         1 JD8       0.399500
     11 C06          1.7620     0.7350     0.1640 ca         1 JD8      -0.127500
     12 C07          0.4240     0.4800     0.5870 ca         1 JD8      -0.089000
     13 C08         -0.5190     1.5200     0.5610 ca         1 JD8      -0.057200
     14 C09         -0.1730     2.7750     0.1570 ca         1 JD8      -0.078800
     15 C11          2.0920     2.0710    -0.2270 ca         1 JD8      -0.114000
     16 C12         -1.3680     3.5710     0.2630 cd         1 JD8      -0.249200
     17 N14         -1.8700     1.5180     0.9020 na         1 JD8      -0.075700
     18 C16         -2.9590    -0.7250     0.3040 c6         1 JD8       0.150500
     19 C18         -3.7500    -3.1200    -0.1410 c6         1 JD8      -0.072400
     20 C19         -4.6870    -2.5610    -1.2380 c6         1 JD8      -0.113400
     21 N21         -3.9350    -0.2110    -0.7170 n3         1 JD8      -0.701600
     22 C23          4.0540    -0.4390    -0.3610 cc         1 JD8      -0.227000
     23 N25          5.1850     1.2520    -1.9520 n1         1 JD8      -0.491000
     24 H1           1.3840     4.1110    -0.5380 ha         1 JD8       0.116000
     25 H2          -3.4670     3.0390     0.9260 h4         1 JD8       0.208000
     26 H3          -1.8890    -0.1840     2.1190 h1         1 JD8       0.057700
     27 H4          -3.4480     0.6160     1.9610 h1         1 JD8       0.057700
     28 H5          -2.7140    -2.4390     1.6440 hc         1 JD8       0.044700
     29 H6          -4.3720    -1.8690     1.5380 hc         1 JD8       0.044700
     30 H7          -3.2000    -1.4090    -2.3200 h1         1 JD8       0.056200
     31 H8          -4.8490    -0.8300    -2.5530 h1         1 JD8       0.056200
     32 H12          6.0810    -3.0680     0.1860 hn         1 JD8       0.479000
     33 H13          6.5080    -1.6820    -0.7760 hn         1 JD8       0.479000
     34 H14          3.7110    -3.1590     1.2300 hn         1 JD8       0.372000
     35 H15          0.1190    -0.5110     0.9120 ha         1 JD8       0.122000
     36 H16          3.1020     2.3550    -0.4930 ha         1 JD8       0.118000
     37 H17         -1.4390     4.6280     0.0160 ha         1 JD8       0.205000
     38 H18         -2.0220    -0.9730    -0.2180 h1         1 JD8       0.073700
     39 H19         -2.8030    -3.4400    -0.5970 hc         1 JD8       0.042200
     40 H20         -4.1950    -4.0140     0.3160 hc         1 JD8       0.042200
     41 H21         -5.6990    -2.4240    -0.8330 hc         1 JD8       0.044200
     42 H22         -4.7790    -3.2890    -2.0550 hc         1 JD8       0.044200
     43 C22         -5.2060     0.3300    -0.1680 c3         1 JD8       0.149100
     44 N01          5.7890    -2.2090    -0.2800 nv         1 JD8      -1.077000
     45 H9          -5.0180     1.1780     0.5020 h1         1 JD8       0.028367
     46 H10         -5.8500     0.6920    -0.9810 h1         1 JD8       0.028367
     47 H11         -5.7630    -0.4320     0.3920 h1         1 JD8       0.028367
@<TRIPOS>BOND
     1     1    14 ar  
     2     1    15 ar  
     3     1    24 1   
     4     2    16 2   
     5     2    17 1   
     6     2    25 1   
     7     3    17 1   
     8     3    18 1   
     9     3    26 1   
    10     3    27 1   
    11     4    18 1   
    12     4    19 1   
    13     4    28 1   
    14     4    29 1   
    15     5    20 1   
    16     5    21 1   
    17     5    30 1   
    18     5    31 1   
    19     6    22 1   
    20     6    23 3   
    21     7     8 1   
    22     7    22 2   
    23     7    44 1   
    24     8     9 1   
    25     8    34 1   
    26     9    10 2   
    27    10    11 1   
    28    10    22 1   
    29    11    12 ar  
    30    11    15 ar  
    31    12    13 ar  
    32    12    35 1   
    33    13    14 ar  
    34    13    17 1   
    35    14    16 1   
    36    15    36 1   
    37    16    37 1   
    38    18    21 1   
    39    18    38 1   
    40    19    20 1   
    41    19    39 1   
    42    19    40 1   
    43    20    41 1   
    44    20    42 1   
    45    21    43 1   
    46    32    44 1   
    47    33    44 1   
    48    43    45 1   
    49    43    46 1   
    50    43    47 1   
@<TRIPOS>SUBSTRUCTURE
     1 JD8         1 TEMP              0 ****  ****    0 ROOT
