@<TRIPOS>MOLECULE
JD9
   67    71     1     0     0
SMALL
bcc


@<TRIPOS>ATOM
      1 C13         -3.7060    -4.1200    26.6460 ca         1 JD9      -0.321000
      2 C15         -2.4290    -5.8320    24.8440 ca         1 JD9       0.053000
      3 C17          2.5700    -5.2530    25.1790 ca         1 JD9       0.298100
      4 C20         -2.3300    -4.2110    26.6350 ca         1 JD9       0.254100
      5 C21         -1.6480    -4.9740    25.6370 ca         1 JD9      -0.068000
      6 C22          0.0700    -8.5450    24.2390 cc         1 JD9      -0.025400
      7 C24         -1.8170    -6.8900    24.1020 ca         1 JD9      -0.023800
      8 C26         -4.6360    -6.5340    23.9530 c          1 JD9       0.581900
      9 C28          2.3250    -7.5570    24.3640 c          1 JD9       0.588900
     10 O02          3.5520    -7.7050    24.2410 o          1 JD9      -0.582100
     11 O04         -1.5950    -3.6700    27.5980 oh         1 JD9      -0.467100
     12 O06         -5.8790    -6.4920    23.9560 o          1 JD9      -0.582100
     13 O07          3.8820    -5.3380    25.0870 oh         1 JD9      -0.500100
     14 O09         -1.7200    -6.0880    20.6190 oh         1 JD9      -0.598800
     15 O10         -1.4990   -11.4730    25.8500 oh         1 JD9      -0.601800
     16 C11          0.8220    -1.5580    26.0540 c3         1 JD9       0.123700
     17 C12         -4.4710    -4.8550    25.7380 ca         1 JD9       0.299100
     18 C14         -0.9810    -7.1900    21.0990 c3         1 JD9       0.152100
     19 C16         -2.5730    -7.5340    23.0350 cc         1 JD9      -0.039400
     20 C18         -3.9170    -7.3550    22.9720 cd         1 JD9       0.027900
     21 C19         -0.7930    -9.7680    24.4020 c3         1 JD9      -0.040200
     22 C23          0.6420    -3.8900    25.6550 ca         1 JD9       0.253100
     23 C25         -1.8540    -8.1850    21.8810 c3         1 JD9      -0.085200
     24 C27          1.4140    -8.6840    24.1540 cd         1 JD9       0.003900
     25 C29         -0.5000    -7.2180    24.4190 ca         1 JD9      -0.017800
     26 C30          0.3370    -6.1820    24.9360 ca         1 JD9       0.051000
     27 C31         -3.8400    -5.7320    24.8380 ca         1 JD9      -0.347600
     28 C32          2.0120    -4.0310    25.5710 ca         1 JD9      -0.312000
     29 C33         -0.2290    -5.0110    25.4600 ca         1 JD9      -0.066000
     30 C34         -0.6950   -10.3100    25.8350 c3         1 JD9       0.153100
     31 C35          1.7400    -6.3310    24.8330 ca         1 JD9      -0.348600
     32 C36         -1.1580    -9.2970    26.8730 c3         1 JD9      -0.133100
     33 C37         -5.1280    -7.0730    20.9730 c3         1 JD9       0.122700
     34 C38         -0.3550    -7.8850    19.9050 c3         1 JD9      -0.089100
     35 C39          2.2690   -10.2470    22.6520 c3         1 JD9       0.127700
     36 H1          -4.2100    -3.5320    27.4050 ha         1 JD9       0.156000
     37 H11         -2.1480    -3.2020    28.2370 ho         1 JD9       0.439000
     38 H13          4.0910    -6.2510    24.7500 ho         1 JD9       0.492000
     39 H14         -6.1540    -5.3700    25.1080 ho         1 JD9       0.492000
     40 H16         -1.4940   -11.8300    26.7440 ho         1 JD9       0.406000
     41 H17          0.1140    -0.7450    26.1850 h1         1 JD9       0.050367
     42 H18          1.4340    -1.6480    26.9540 h1         1 JD9       0.050367
     43 H19          1.4660    -1.3370    25.2010 h1         1 JD9       0.050367
     44 H21         -0.1720    -6.8450    21.7570 h1         1 JD9       0.031700
     45 H22         -1.8440    -9.5470    24.2140 hc         1 JD9       0.072700
     46 H23         -0.5010   -10.5550    23.7050 hc         1 JD9       0.072700
     47 H25         -2.5810    -8.6290    21.2010 hc         1 JD9       0.073200
     48 H26         -1.2110    -9.0030    22.1980 hc         1 JD9       0.073200
     49 H30          2.6790    -3.1950    25.7340 ha         1 JD9       0.160000
     50 H33          0.3520   -10.5670    26.0410 h1         1 JD9       0.046700
     51 H35         -1.1630    -9.7460    27.8690 hc         1 JD9       0.043700
     52 H36         -0.4930    -8.4340    26.9160 hc         1 JD9       0.043700
     53 H37         -2.1660    -8.9390    26.6550 hc         1 JD9       0.043700
     54 H38         -5.7820    -7.6680    20.3390 h1         1 JD9       0.045700
     55 H39         -5.6930    -6.2250    21.3630 h1         1 JD9       0.045700
     56 H40         -4.2910    -6.7030    20.3790 h1         1 JD9       0.045700
     57 H41          0.2360    -8.7400    20.2330 hc         1 JD9       0.044033
     58 H42         -1.1200    -8.2490    19.2160 hc         1 JD9       0.044033
     59 H43          0.3050    -7.2100    19.3610 hc         1 JD9       0.044033
     60 H44          2.7000   -11.2450    22.6620 h1         1 JD9       0.039700
     61 H45          1.3550   -10.2600    22.0510 h1         1 JD9       0.039700
     62 H46          2.9820    -9.5580    22.1940 h1         1 JD9       0.039700
     63 O01          0.0460    -2.7230    25.8320 os         1 JD9      -0.296900
     64 O03          1.9900    -9.8990    24.0050 os         1 JD9      -0.319900
     65 O05         -4.6640    -7.9360    22.0110 os         1 JD9      -0.320900
     66 O08         -5.7850    -4.7460    25.7900 oh         1 JD9      -0.499100
     67 H15         -2.0050    -5.5510    21.3650 ho         1 JD9       0.406000
@<TRIPOS>BOND
     1     1     4 ar  
     2     1    17 ar  
     3     1    36 1   
     4     2     5 ar  
     5     2     7 ar  
     6     2    27 ar  
     7     3    13 1   
     8     3    28 ar  
     9     3    31 ar  
    10     4     5 ar  
    11     4    11 1   
    12     5    29 ar  
    13     6    21 1   
    14     6    24 2   
    15     6    25 1   
    16     7    19 1   
    17     7    25 ar  
    18     8    12 2   
    19     8    20 1   
    20     8    27 1   
    21     9    10 2   
    22     9    24 1   
    23     9    31 1   
    24    11    37 1   
    25    13    38 1   
    26    14    18 1   
    27    14    67 1   
    28    15    30 1   
    29    15    40 1   
    30    16    41 1   
    31    16    42 1   
    32    16    43 1   
    33    16    63 1   
    34    17    27 ar  
    35    17    66 1   
    36    18    23 1   
    37    18    34 1   
    38    18    44 1   
    39    19    20 2   
    40    19    23 1   
    41    20    65 1   
    42    21    30 1   
    43    21    45 1   
    44    21    46 1   
    45    22    28 ar  
    46    22    29 ar  
    47    22    63 1   
    48    23    47 1   
    49    23    48 1   
    50    24    64 1   
    51    25    26 ar  
    52    26    29 ar  
    53    26    31 ar  
    54    28    49 1   
    55    30    32 1   
    56    30    50 1   
    57    32    51 1   
    58    32    52 1   
    59    32    53 1   
    60    33    54 1   
    61    33    55 1   
    62    33    56 1   
    63    33    65 1   
    64    34    57 1   
    65    34    58 1   
    66    34    59 1   
    67    35    60 1   
    68    35    61 1   
    69    35    62 1   
    70    35    64 1   
    71    39    66 1   
@<TRIPOS>SUBSTRUCTURE
     1 JD9         1 TEMP              0 ****  ****    0 ROOT
