@<TRIPOS>MOLECULE
JD9
   67    71     1     0     0
SMALL
No Charge or Current Charge


@<TRIPOS>ATOM
      1 C13         -3.6250    -3.8800    26.4780 ca         1 JD9      -0.303000
      2 C15         -2.4300    -5.6970    24.7070 ca         1 JD9       0.053000
      3 C17          2.6080    -5.3870    25.1480 ca         1 JD9       0.298100
      4 C20         -2.2380    -4.0260    26.4690 ca         1 JD9       0.254100
      5 C21         -1.6010    -4.8750    25.5160 ca         1 JD9      -0.068000
      6 C22         -0.1070    -8.5410    24.0280 cc         1 JD9      -0.025400
      7 C24         -1.8590    -6.7240    23.9260 ca         1 JD9      -0.023800
      8 C26         -4.6900    -6.4570    23.8960 c          1 JD9       0.581900
      9 C28          2.2510    -7.6460    24.0700 c          1 JD9       0.588900
     10 O02          3.4510    -7.7430    23.8250 o          1 JD9      -0.582100
     11 O04         -1.5720    -3.4710    27.5220 oh         1 JD9      -0.506100
     12 O06         -5.9080    -6.4480    24.0580 o          1 JD9      -0.582100
     13 O07          3.9530    -5.5430    25.0730 oh         1 JD9      -0.539100
     14 O09         -1.4460    -5.6820    20.5370 oh         1 JD9      -0.661000
     15 O10         -1.8190   -11.4690    25.7300 oh         1 JD9      -0.664000
     16 C11          1.1450    -1.5230    26.1320 c3         1 JD9       0.146900
     17 C12         -4.4150    -4.6100    25.6020 ca         1 JD9       0.299100
     18 C14         -0.8010    -6.8820    20.9690 c3         1 JD9       0.175300
     19 C16         -2.5930    -7.3330    22.7850 cc         1 JD9      -0.039400
     20 C18         -3.9800    -7.2950    22.8700 cd         1 JD9       0.027900
     21 C19         -1.0570    -9.7180    24.2350 c3         1 JD9      -0.040200
     22 C23          0.7370    -3.9300    25.6610 ca         1 JD9       0.253100
     23 C25         -1.8580    -7.8580    21.5450 c3         1 JD9      -0.085200
     24 C27          1.2500    -8.7360    23.8210 cd         1 JD9       0.003900
     25 C29         -0.5410    -7.1410    24.2520 ca         1 JD9      -0.017800
     26 C30          0.3360    -6.1780    24.7940 ca         1 JD9       0.051000
     27 C31         -3.8350    -5.5510    24.7350 ca         1 JD9      -0.347600
     28 C32          2.1210    -4.1690    25.5960 ca         1 JD9      -0.294000
     29 C33         -0.1810    -4.9770    25.3470 ca         1 JD9      -0.066000
     30 C34         -0.9410   -10.3430    25.6450 c3         1 JD9       0.176300
     31 C35          1.7300    -6.3870    24.7030 ca         1 JD9      -0.348600
     32 C36         -1.2990    -9.3560    26.7760 c3         1 JD9      -0.133100
     33 C37         -6.0810    -8.0470    21.7560 c3         1 JD9       0.145900
     34 C38         -0.0280    -7.4870    19.7820 c3         1 JD9      -0.089100
     35 C39          2.9680   -10.4780    23.3550 c3         1 JD9       0.150900
     36 H1          -4.1090    -3.2280    27.2000 ha         1 JD9       0.138000
     37 H11         -2.2160    -2.9660    28.0570 ho         1 JD9       0.478000
     38 H13          4.0840    -6.4030    24.5950 ho         1 JD9       0.531000
     39 H14         -6.1320    -5.1520    25.0830 ho         1 JD9       0.531000
     40 H16         -1.6820   -11.8730    26.6150 ho         1 JD9       0.445000
     41 H17          0.5540    -0.6080    26.2620 h1         1 JD9       0.050367
     42 H18          1.7120    -1.6940    27.0550 h1         1 JD9       0.050367
     43 H19          1.8500    -1.3550    25.3070 h1         1 JD9       0.050367
     44 H21         -0.0660    -6.6450    21.7490 h1         1 JD9       0.031700
     45 H22         -2.1020    -9.4280    24.0970 hc         1 JD9       0.072700
     46 H23         -0.8700   -10.4950    23.4840 hc         1 JD9       0.072700
     47 H25         -2.5590    -8.0730    20.7320 hc         1 JD9       0.073200
     48 H26         -1.3820    -8.8200    21.7490 hc         1 JD9       0.073200
     49 H30          2.8420    -3.3990    25.8450 ha         1 JD9       0.142000
     50 H33          0.0980   -10.6720    25.7910 h1         1 JD9       0.046700
     51 H35         -1.2490    -9.8500    27.7540 hc         1 JD9       0.043700
     52 H36         -0.5980    -8.5140    26.7950 hc         1 JD9       0.043700
     53 H37         -2.3120    -8.9560    26.6420 hc         1 JD9       0.043700
     54 H38         -6.3670    -8.6680    20.8980 h1         1 JD9       0.045700
     55 H39         -6.5600    -8.4700    22.6480 h1         1 JD9       0.045700
     56 H40         -6.4720    -7.0360    21.5820 h1         1 JD9       0.045700
     57 H41          0.5010    -8.3960    20.0910 hc         1 JD9       0.044033
     58 H42         -0.7080    -7.7460    18.9610 hc         1 JD9       0.044033
     59 H43          0.7150    -6.7750    19.4030 hc         1 JD9       0.044033
     60 H44          2.9960   -11.5490    23.1230 h1         1 JD9       0.039700
     61 H45          3.4810    -9.9470    22.5430 h1         1 JD9       0.039700
     62 H46          3.5190   -10.3230    24.2920 h1         1 JD9       0.039700
     63 O01          0.2790    -2.6370    25.8480 os         1 JD9      -0.320100
     64 O03          1.6040   -10.0350    23.4800 os         1 JD9      -0.343100
     65 O05         -4.6480    -8.0290    21.8970 os         1 JD9      -0.344100
     66 O08         -5.7590    -4.4480    25.6750 oh         1 JD9      -0.538100
     67 H15         -1.9330    -5.3290    21.3120 ho         1 JD9       0.445000
@<TRIPOS>BOND
     1     1     4 ar  
     2     1    17 ar  
     3     1    36 1   
     4     2     5 ar  
     5     2     7 ar  
     6     2    27 ar  
     7     3    13 1   
     8     3    28 ar  
     9     3    31 ar  
    10     4     5 ar  
    11     4    11 1   
    12     5    29 ar  
    13     6    21 1   
    14     6    24 2   
    15     6    25 1   
    16     7    19 1   
    17     7    25 ar  
    18     8    12 2   
    19     8    20 1   
    20     8    27 1   
    21     9    10 2   
    22     9    24 1   
    23     9    31 1   
    24    11    37 1   
    25    13    38 1   
    26    14    18 1   
    27    14    67 1   
    28    15    30 1   
    29    15    40 1   
    30    16    41 1   
    31    16    42 1   
    32    16    43 1   
    33    16    63 1   
    34    17    27 ar  
    35    17    66 1   
    36    18    23 1   
    37    18    34 1   
    38    18    44 1   
    39    19    20 2   
    40    19    23 1   
    41    20    65 1   
    42    21    30 1   
    43    21    45 1   
    44    21    46 1   
    45    22    28 ar  
    46    22    29 ar  
    47    22    63 1   
    48    23    47 1   
    49    23    48 1   
    50    24    64 1   
    51    25    26 ar  
    52    26    29 ar  
    53    26    31 ar  
    54    28    49 1   
    55    30    32 1   
    56    30    50 1   
    57    32    51 1   
    58    32    52 1   
    59    32    53 1   
    60    33    54 1   
    61    33    55 1   
    62    33    56 1   
    63    33    65 1   
    64    34    57 1   
    65    34    58 1   
    66    34    59 1   
    67    35    60 1   
    68    35    61 1   
    69    35    62 1   
    70    35    64 1   
    71    39    66 1   
@<TRIPOS>SUBSTRUCTURE
     1 JD9         1 TEMP              0 ****  ****    0 ROOT
