@<TRIPOS>MOLECULE
JDA
   53    56     1     0     0
SMALL
abcg2


@<TRIPOS>ATOM
      1 N          163.8100   122.3950   129.9070 nb         1 JDA      -0.201000
      2 C          161.9860   119.6310   131.7390 c3         1 JDA      -0.029800
      3 C1         162.7640   120.3730   130.6970 ca         1 JDA      -0.254300
      4 C10        160.7360   119.8750   125.7210 ca         1 JDA      -0.099500
      5 C11        161.2810   119.2110   126.8110 ca         1 JDA      -0.087000
      6 C12        160.1910   121.7670   123.4090 cc         1 JDA      -0.196000
      7 C13        159.9320   122.0100   122.0840 cd         1 JDA       0.189900
      8 C14        164.8200   122.4570   127.6950 cp         1 JDA      -0.133500
      9 C15        164.2260   122.3520   126.4300 ca         1 JDA      -0.077000
     10 C16        164.7440   123.0260   125.3360 ca         1 JDA      -0.124000
     11 C17        165.8840   123.8090   125.4970 ca         1 JDA      -0.097000
     12 C18        166.4920   123.8940   126.7410 ca         1 JDA      -0.119000
     13 C19        165.9830   123.2260   127.8610 ca         1 JDA      -0.028300
     14 C2         163.1330   121.6910   130.8360 ca         1 JDA       0.131900
     15 C20        166.7320   123.3110   129.1790 c3         1 JDA      -0.021400
     16 C21        168.1650   122.7780   129.0420 c3         1 JDA      -0.082600
     17 C22        166.7260   124.7390   129.7390 c3         1 JDA      -0.082600
     18 C3         164.1490   121.7260   128.8070 cp         1 JDA       0.223500
     19 C4         163.1640   119.7650   129.4790 ca         1 JDA       0.381900
     20 C5         163.1400   117.8730   127.9050 c3         1 JDA       0.287100
     21 C6         162.5160   118.5750   126.7160 ca         1 JDA      -0.082300
     22 C7         163.1900   118.6000   125.4980 ca         1 JDA      -0.087000
     23 C8         162.6630   119.2640   124.3990 ca         1 JDA      -0.099500
     24 C9         161.4360   119.9060   124.5200 ca         1 JDA      -0.002200
     25 N1         163.8720   120.4420   128.5680 nb         1 JDA      -0.253000
     26 N2         162.8410   118.4840   129.1860 nu         1 JDA      -0.942100
     27 N3         160.9000   120.6130   123.4090 na         1 JDA       0.209000
     28 N4         160.4850   121.0100   121.3490 nd         1 JDA      -0.354000
     29 N5         161.0690   120.1630   122.1480 nc         1 JDA      -0.195800
     30 H1         162.5310   118.7490   132.0890 hc         1 JDA       0.041367
     31 H2         161.7870   120.2720   132.5970 hc         1 JDA       0.041367
     32 H3         161.0260   119.2810   131.3450 hc         1 JDA       0.041367
     33 H5         160.7430   119.2040   127.7500 ha         1 JDA       0.120500
     34 H6         159.9580   122.3060   124.3090 h4         1 JDA       0.169000
     35 H7         159.3990   122.8290   121.6310 h4         1 JDA       0.051100
     36 H8         163.3440   121.7350   126.3190 ha         1 JDA       0.120000
     37 H9         164.2640   122.9420   124.3690 ha         1 JDA       0.115000
     38 H10        166.3040   124.3430   124.6530 ha         1 JDA       0.113000
     39 H11        167.3920   124.4870   126.8470 ha         1 JDA       0.113000
     40 H12        162.8610   122.2280   131.7400 h4         1 JDA       0.020100
     41 H13        166.2160   122.6780   129.8980 hc         1 JDA       0.062700
     42 H14        168.6620   122.7870   130.0140 hc         1 JDA       0.034700
     43 H15        168.1670   121.7530   128.6660 hc         1 JDA       0.034700
     44 H16        168.7560   123.3910   128.3580 hc         1 JDA       0.034700
     45 H17        167.2230   124.7660   130.7110 hc         1 JDA       0.034700
     46 H18        167.2520   125.4250   129.0730 hc         1 JDA       0.034700
     47 H19        165.7050   125.1040   129.8650 hc         1 JDA       0.034700
     48 H20        162.7800   116.8440   127.9600 h1         1 JDA       0.061700
     49 H21        164.2200   117.8300   127.7540 h1         1 JDA       0.061700
     50 H22        164.1610   118.1260   125.4140 ha         1 JDA       0.120500
     51 H23        163.2070   119.3090   123.4660 ha         1 JDA       0.134000
     52 H24        162.2540   117.9780   129.8260 hn         1 JDA       0.500000
     53 H4         159.7730   120.3620   125.8020 ha         1 JDA       0.134000
@<TRIPOS>BOND
     1     1    14 ar  
     2     1    18 ar  
     3     2     3 1   
     4     2    30 1   
     5     2    31 1   
     6     2    32 1   
     7     3    14 ar  
     8     3    19 ar  
     9     4     5 ar  
    10     4    24 ar  
    11     4    53 1   
    12     5    21 ar  
    13     5    33 1   
    14     6     7 2   
    15     6    27 1   
    16     6    34 1   
    17     7    28 1   
    18     7    35 1   
    19     8     9 ar  
    20     8    13 ar  
    21     8    18 1   
    22     9    10 ar  
    23     9    36 1   
    24    10    11 ar  
    25    10    37 1   
    26    11    12 ar  
    27    11    38 1   
    28    12    13 ar  
    29    12    39 1   
    30    13    15 1   
    31    14    40 1   
    32    15    16 1   
    33    15    17 1   
    34    15    41 1   
    35    16    42 1   
    36    16    43 1   
    37    16    44 1   
    38    17    45 1   
    39    17    46 1   
    40    17    47 1   
    41    18    25 ar  
    42    19    25 ar  
    43    19    26 1   
    44    20    21 1   
    45    20    26 1   
    46    20    48 1   
    47    20    49 1   
    48    21    22 ar  
    49    22    23 ar  
    50    22    50 1   
    51    23    24 ar  
    52    23    51 1   
    53    24    27 1   
    54    26    52 1   
    55    27    29 1   
    56    28    29 2   
@<TRIPOS>SUBSTRUCTURE
     1 JDA         1 TEMP              0 ****  ****    0 ROOT
