@<TRIPOS>MOLECULE
JDA
   53    56     1     0     0
SMALL
No Charge or Current Charge


@<TRIPOS>ATOM
      1 N          163.9750   122.2750   130.0520 nb         1 JDA      -0.201000
      2 C          161.9430   119.6630   131.9140 c3         1 JDA      -0.029800
      3 C1         162.7660   120.3430   130.8230 ca         1 JDA      -0.254300
      4 C10        160.7470   119.7040   125.5240 ca         1 JDA      -0.099500
      5 C11        161.0950   118.9460   126.6570 ca         1 JDA      -0.087000
      6 C12        160.6100   121.8770   123.4530 cc         1 JDA      -0.196000
      7 C13        160.5410   122.2280   122.1320 cd         1 JDA       0.189900
      8 C14        164.6730   122.3990   127.7200 cp         1 JDA      -0.133500
      9 C15        163.8870   122.3660   126.5360 ca         1 JDA      -0.077000
     10 C16        164.2410   123.1050   125.4000 ca         1 JDA      -0.124000
     11 C17        165.3910   123.9030   125.4200 ca         1 JDA      -0.097000
     12 C18        166.1920   123.9460   126.5720 ca         1 JDA      -0.119000
     13 C19        165.8630   123.1940   127.7240 ca         1 JDA      -0.028300
     14 C2         163.2660   121.6450   131.0080 ca         1 JDA       0.131900
     15 C20        166.8240   123.2470   128.9270 c3         1 JDA      -0.021400
     16 C21        168.2830   122.9150   128.5330 c3         1 JDA      -0.082600
     17 C22        166.7250   124.6030   129.6600 c3         1 JDA      -0.082600
     18 C3         164.2100   121.6030   128.9040 cp         1 JDA       0.223500
     19 C4         163.0580   119.7260   129.5920 ca         1 JDA       0.381900
     20 C5         162.8030   117.6640   128.0590 c3         1 JDA       0.287100
     21 C6         162.3990   118.4330   126.7990 ca         1 JDA      -0.082300
     22 C7         163.3450   118.6710   125.7830 ca         1 JDA      -0.087000
     23 C8         162.9980   119.4260   124.6490 ca         1 JDA      -0.099500
     24 C9         161.6990   119.9560   124.5140 ca         1 JDA      -0.002200
     25 N1         163.7850   120.3510   128.6530 nb         1 JDA      -0.253000
     26 N2         162.5760   118.4530   129.2900 nu         1 JDA      -0.942100
     27 N3         161.3640   120.7380   123.4030 na         1 JDA       0.209000
     28 N4         161.2310   121.2990   121.3660 nd         1 JDA      -0.354000
     29 N5         161.7320   120.3760   122.1470 nc         1 JDA      -0.195800
     30 H1         162.4110   118.7250   132.2370 hc         1 JDA       0.041367
     31 H2         161.8450   120.3010   132.8010 hc         1 JDA       0.041367
     32 H3         160.9300   119.4340   131.5610 hc         1 JDA       0.041367
     33 H5         160.3550   118.7730   127.4350 ha         1 JDA       0.120500
     34 H6         160.2180   122.3230   124.3550 h4         1 JDA       0.169000
     35 H7         160.0420   123.0810   121.6890 h4         1 JDA       0.051100
     36 H8         162.9780   121.7700   126.5090 ha         1 JDA       0.120000
     37 H9         163.6180   123.0660   124.5080 ha         1 JDA       0.115000
     38 H10        165.6650   124.4850   124.5440 ha         1 JDA       0.113000
     39 H11        167.0800   124.5720   126.5610 ha         1 JDA       0.113000
     40 H12        163.0870   122.2010   131.9280 h4         1 JDA       0.020100
     41 H13        166.5510   122.4750   129.6530 hc         1 JDA       0.062700
     42 H14        168.9100   122.8230   129.4280 hc         1 JDA       0.034700
     43 H15        168.3260   121.9620   127.9910 hc         1 JDA       0.034700
     44 H16        168.7190   123.6930   127.8970 hc         1 JDA       0.034700
     45 H17        167.3610   124.6070   130.5530 hc         1 JDA       0.034700
     46 H18        167.0420   125.4260   129.0090 hc         1 JDA       0.034700
     47 H19        165.6930   124.7940   129.9760 hc         1 JDA       0.034700
     48 H20        162.2310   116.7270   128.1010 h1         1 JDA       0.061700
     49 H21        163.8650   117.3890   127.9900 h1         1 JDA       0.061700
     50 H22        164.3590   118.2890   125.8790 ha         1 JDA       0.120500
     51 H23        163.7500   119.6150   123.8850 ha         1 JDA       0.134000
     52 H24        162.0210   118.0140   130.0230 hn         1 JDA       0.500000
     53 H4         159.7370   120.0970   125.4380 ha         1 JDA       0.134000
@<TRIPOS>BOND
     1     1    14 ar  
     2     1    18 ar  
     3     2     3 1   
     4     2    30 1   
     5     2    31 1   
     6     2    32 1   
     7     3    14 ar  
     8     3    19 ar  
     9     4     5 ar  
    10     4    24 ar  
    11     4    53 1   
    12     5    21 ar  
    13     5    33 1   
    14     6     7 2   
    15     6    27 1   
    16     6    34 1   
    17     7    28 1   
    18     7    35 1   
    19     8     9 ar  
    20     8    13 ar  
    21     8    18 1   
    22     9    10 ar  
    23     9    36 1   
    24    10    11 ar  
    25    10    37 1   
    26    11    12 ar  
    27    11    38 1   
    28    12    13 ar  
    29    12    39 1   
    30    13    15 1   
    31    14    40 1   
    32    15    16 1   
    33    15    17 1   
    34    15    41 1   
    35    16    42 1   
    36    16    43 1   
    37    16    44 1   
    38    17    45 1   
    39    17    46 1   
    40    17    47 1   
    41    18    25 ar  
    42    19    25 ar  
    43    19    26 1   
    44    20    21 1   
    45    20    26 1   
    46    20    48 1   
    47    20    49 1   
    48    21    22 ar  
    49    22    23 ar  
    50    22    50 1   
    51    23    24 ar  
    52    23    51 1   
    53    24    27 1   
    54    26    52 1   
    55    27    29 1   
    56    28    29 2   
@<TRIPOS>SUBSTRUCTURE
     1 JDA         1 TEMP              0 ****  ****    0 ROOT
