@<TRIPOS>MOLECULE
JDB
   40    42     1     0     0
SMALL
abcg2


@<TRIPOS>ATOM
      1 OAJ         -4.7600    -2.6740    -0.2010 o          1 JDB      -0.689000
      2 CAI         -3.6700    -2.0850    -0.0820 c          1 JDB       0.718200
      3 OAK         -2.5340    -2.5720    -0.0760 o          1 JDB      -0.689000
      4 C4          -3.7960    -0.5540     0.0560 cc         1 JDB       0.027400
      5 N3          -5.0830    -0.1350    -0.1440 ns         1 JDB      -0.494600
      6 C2          -5.5060     1.1540    -0.1120 c          1 JDB       0.606000
      7 O2          -6.6610     1.4940    -0.2940 o          1 JDB      -0.609000
      8 N1          -4.4980     2.0450     0.1440 ns         1 JDB      -0.471500
      9 C6          -3.1650     1.7500     0.3670 c          1 JDB       0.578200
     10 O6          -2.3770     2.6590     0.5720 o          1 JDB      -0.587000
     11 C5          -2.8120     0.3360     0.3330 cd         1 JDB      -0.294400
     12 CAL         -1.3680     0.0060     0.5640 c3         1 JDB       0.019800
     13 CAM         -0.5590     0.0150    -0.7410 c3         1 JDB      -0.037100
     14 CAN          0.8680    -0.3890    -0.5140 ca         1 JDB      -0.036300
     15 CAS          1.8830     0.5310    -0.5010 ca         1 JDB      -0.126000
     16 CAR          3.2270     0.1520    -0.2570 ca         1 JDB       0.002000
     17 CAT          4.2740     1.0940    -0.2460 ca         1 JDB      -0.143000
     18 CAW          5.5730     0.7040    -0.0090 ca         1 JDB       0.119100
     19 OAX          6.5110     1.6710    -0.0200 os         1 JDB      -0.350100
     20 CAY          7.8590     1.3260     0.2280 c3         1 JDB       0.156900
     21 CAV          5.8660    -0.6600     0.2300 ca         1 JDB      -0.194000
     22 CAU          4.8560    -1.5860     0.2220 ca         1 JDB      -0.063000
     23 CAQ          3.5180    -1.2160    -0.0190 ca         1 JDB      -0.072000
     24 CAP          2.4570    -2.1550    -0.0350 ca         1 JDB      -0.110000
     25 CAO          1.1740    -1.7540    -0.2730 ca         1 JDB      -0.093000
     26 H2          -4.7580     3.0230     0.1670 hn         1 JDB       0.319500
     27 H4          -0.9380     0.7410     1.2470 hc         1 JDB       0.057700
     28 H5          -1.2740    -0.9670     1.0370 hc         1 JDB       0.057700
     29 H6          -1.0300    -0.6760    -1.4430 hc         1 JDB       0.055200
     30 H7          -0.5990     1.0100    -1.1900 hc         1 JDB       0.055200
     31 H8           1.6630     1.5780    -0.6840 ha         1 JDB       0.115000
     32 H9           4.0540     2.1400    -0.4270 ha         1 JDB       0.123000
     33 H10          7.9980     0.8950     1.2230 h1         1 JDB       0.032700
     34 H11          8.2490     0.6260    -0.5160 h1         1 JDB       0.032700
     35 H12          8.4290     2.2500     0.1670 h1         1 JDB       0.032700
     36 H13          6.8780    -0.9890     0.4190 ha         1 JDB       0.104000
     37 H14          5.0910    -2.6280     0.4050 ha         1 JDB       0.104000
     38 H15          2.6790    -3.2000     0.1410 ha         1 JDB       0.105000
     39 H16          0.3700    -2.4800    -0.2850 ha         1 JDB       0.150000
     40 H17         -5.7550    -0.8750    -0.3130 hn         1 JDB       0.490000
@<TRIPOS>BOND
     1     1     2 1   
     2     2     3 1   
     3     2     4 1   
     4     4     5 1   
     5     4    11 2   
     6     5     6 1   
     7     5    40 1   
     8     6     7 2   
     9     6     8 1   
    10     8     9 1   
    11     8    26 1   
    12     9    10 2   
    13     9    11 1   
    14    11    12 1   
    15    12    13 1   
    16    12    27 1   
    17    12    28 1   
    18    13    14 1   
    19    13    29 1   
    20    13    30 1   
    21    14    15 ar  
    22    14    25 ar  
    23    15    16 ar  
    24    15    31 1   
    25    16    17 ar  
    26    16    23 ar  
    27    17    18 ar  
    28    17    32 1   
    29    18    19 1   
    30    18    21 ar  
    31    19    20 1   
    32    20    33 1   
    33    20    34 1   
    34    20    35 1   
    35    21    22 ar  
    36    21    36 1   
    37    22    23 ar  
    38    22    37 1   
    39    23    24 ar  
    40    24    25 ar  
    41    24    38 1   
    42    25    39 1   
@<TRIPOS>SUBSTRUCTURE
     1 JDB         1 TEMP              0 ****  ****    0 ROOT
