@<TRIPOS>MOLECULE
JDB
   40    42     1     0     0
SMALL
No Charge or Current Charge


@<TRIPOS>ATOM
      1 OAJ         -4.8310    -2.6900    -0.2160 o          1 JDB      -0.689000
      2 CAI         -3.7890    -2.0750    -0.0150 c          1 JDB       0.718200
      3 OAK         -2.7170    -2.6520     0.0940 o          1 JDB      -0.689000
      4 C4          -3.8780    -0.5570     0.0770 cc         1 JDB       0.027400
      5 N3          -5.1550    -0.0270    -0.1020 ns         1 JDB      -0.494600
      6 C2          -5.4930     1.2840    -0.0890 c          1 JDB       0.606000
      7 O2          -6.6330     1.6710    -0.2550 o          1 JDB      -0.609000
      8 N1          -4.4530     2.1210     0.1210 ns         1 JDB      -0.471500
      9 C6          -3.1430     1.8080     0.3210 c          1 JDB       0.578200
     10 O6          -2.3190     2.6930     0.4920 o          1 JDB      -0.587000
     11 C5          -2.8370     0.3450     0.3060 cd         1 JDB      -0.294400
     12 CAL         -1.3740    -0.0080     0.5440 c3         1 JDB       0.019800
     13 CAM         -0.5800    -0.1470    -0.7710 c3         1 JDB      -0.037100
     14 CAN          0.8720    -0.5360    -0.5280 ca         1 JDB      -0.036300
     15 CAS          1.8750     0.4510    -0.4800 ca         1 JDB      -0.126000
     16 CAR          3.2170     0.0920    -0.2510 ca         1 JDB       0.002000
     17 CAT          4.2180     1.0790    -0.2030 ca         1 JDB      -0.143000
     18 CAW          5.5580     0.7250     0.0250 ca         1 JDB       0.119100
     19 OAX          6.4950     1.7370     0.0610 os         1 JDB      -0.350100
     20 CAY          7.8930     1.4800     0.2880 c3         1 JDB       0.156900
     21 CAV          5.8990    -0.6330     0.2090 ca         1 JDB      -0.194000
     22 CAU          4.9010    -1.6230     0.1630 ca         1 JDB      -0.063000
     23 CAQ          3.5600    -1.2650    -0.0660 ca         1 JDB      -0.072000
     24 CAP          2.5580    -2.2520    -0.1120 ca         1 JDB      -0.110000
     25 CAO          1.2200    -1.8870    -0.3410 ca         1 JDB      -0.093000
     26 H2          -4.6750     3.1030     0.1310 hn         1 JDB       0.319500
     27 H4          -0.8820     0.7490     1.1670 hc         1 JDB       0.057700
     28 H5          -1.2820    -0.9290     1.1300 hc         1 JDB       0.057700
     29 H6          -1.0650    -0.8960    -1.4090 hc         1 JDB       0.055200
     30 H7          -0.6330     0.8000    -1.3220 hc         1 JDB       0.055200
     31 H8           1.6120     1.4970    -0.6190 ha         1 JDB       0.115000
     32 H9           3.9600     2.1250    -0.3440 ha         1 JDB       0.123000
     33 H10          8.0470     1.0020     1.2640 h1         1 JDB       0.032700
     34 H11          8.3010     0.8280    -0.4940 h1         1 JDB       0.032700
     35 H12          8.4580     2.4200     0.2770 h1         1 JDB       0.032700
     36 H13          6.9250    -0.9400     0.3880 ha         1 JDB       0.104000
     37 H14          5.1720    -2.6670     0.3060 ha         1 JDB       0.104000
     38 H15          2.8130    -3.2990     0.0310 ha         1 JDB       0.105000
     39 H16          0.4500    -2.6560    -0.3720 ha         1 JDB       0.150000
     40 H17         -5.9290    -0.6660    -0.2660 hn         1 JDB       0.490000
@<TRIPOS>BOND
     1     1     2 1   
     2     2     3 1   
     3     2     4 1   
     4     4     5 1   
     5     4    11 2   
     6     5     6 1   
     7     5    40 1   
     8     6     7 2   
     9     6     8 1   
    10     8     9 1   
    11     8    26 1   
    12     9    10 2   
    13     9    11 1   
    14    11    12 1   
    15    12    13 1   
    16    12    27 1   
    17    12    28 1   
    18    13    14 1   
    19    13    29 1   
    20    13    30 1   
    21    14    15 ar  
    22    14    25 ar  
    23    15    16 ar  
    24    15    31 1   
    25    16    17 ar  
    26    16    23 ar  
    27    17    18 ar  
    28    17    32 1   
    29    18    19 1   
    30    18    21 ar  
    31    19    20 1   
    32    20    33 1   
    33    20    34 1   
    34    20    35 1   
    35    21    22 ar  
    36    21    36 1   
    37    22    23 ar  
    38    22    37 1   
    39    23    24 ar  
    40    24    25 ar  
    41    24    38 1   
    42    25    39 1   
@<TRIPOS>SUBSTRUCTURE
     1 JDB         1 TEMP              0 ****  ****    0 ROOT
