@<TRIPOS>MOLECULE
JDC
   73    76     1     0     0
SMALL
No Charge or Current Charge


@<TRIPOS>ATOM
      1 C1          -4.0960     1.1260     2.2260 c6         1 JDC       0.196100
      2 N2          -3.5880    -0.2660     2.1720 n7         1 JDC      -0.834400
      3 C3          -2.3120    -0.3710     1.3860 c6         1 JDC       0.086500
      4 C4          -2.6080    -0.0110    -0.1010 c6         1 JDC      -0.058100
      5 C4A         -3.4640     1.2500    -0.2610 ca         1 JDC      -0.116300
      6 C5          -3.5550     1.8730    -1.5200 ca         1 JDC      -0.065000
      7 C6          -4.3530     3.0170    -1.6890 ca         1 JDC      -0.203000
      8 C7          -5.0670     3.5390    -0.6000 ca         1 JDC       0.140100
      9 O7          -5.8410     4.6480    -0.7590 oh         1 JDC      -0.534100
     10 C8          -4.9840     2.9210     0.6570 ca         1 JDC      -0.140000
     11 C8A         -4.1880     1.7720     0.8360 ca         1 JDC      -0.077300
     12 C1A         -1.5490    -1.7390     1.5910 c          1 JDC       0.605100
     13 O1          -1.2190    -2.1320     2.7050 o          1 JDC      -0.605100
     14 N2A         -1.2640    -2.4720     0.4550 ns         1 JDC      -0.484900
     15 C2A         -0.4180    -3.6750     0.4080 c3         1 JDC       0.111700
     16 C3A         -1.2730    -4.9730     0.2510 c3         1 JDC      -0.070700
     17 C3D         -0.4050    -6.2560     0.2460 c3         1 JDC      -0.086600
     18 C3B         -2.3860    -5.0910     1.3230 c3         1 JDC      -0.086600
     19 C4D          0.6600    -3.5040    -0.7070 c3         1 JDC       0.150800
     20 N11          1.3220    -2.1710    -0.7510 n3         1 JDC      -0.727600
     21 C21          2.1040    -1.8530     0.4790 c6         1 JDC       0.162800
     22 C31          2.6500    -0.3950     0.4630 c6         1 JDC      -0.042700
     23 C34          1.4730     0.6200     0.6280 c3         1 JDC      -0.088100
     24 C41          3.5470    -0.1220    -0.8060 c6         1 JDC       0.004300
     25 C51          2.7270    -0.5570    -2.0700 c6         1 JDC      -0.066400
     26 C61          2.1500    -1.9930    -1.9700 c6         1 JDC       0.170800
     27 C4E          4.8620    -0.9710    -0.7370 c3         1 JDC      -0.086100
     28 C1C          3.9970     1.3730    -0.8560 ca         1 JDC      -0.022300
     29 C2C          4.6580     1.9410     0.2590 ca         1 JDC      -0.147000
     30 C3C          5.0800     3.2790     0.2510 ca         1 JDC       0.138100
     31 O3C          5.7100     3.7960     1.3420 oh         1 JDC      -0.536100
     32 C4C          4.8550     4.0820    -0.8740 ca         1 JDC      -0.208000
     33 C5C          4.2100     3.5400    -1.9950 ca         1 JDC      -0.070000
     34 C6C          3.7870     2.2000    -1.9890 ca         1 JDC      -0.148000
     35 H1          -5.0870     1.1390     2.7060 h1         1 JDC       0.065200
     36 H2          -3.4260     1.7360     2.8500 h1         1 JDC       0.065200
     37 H3          -4.3000    -0.8530     1.7180 hn         1 JDC       0.432000
     38 H5          -1.6090     0.3820     1.7710 h1         1 JDC       0.074700
     39 H6          -1.6610     0.1150    -0.6430 hc         1 JDC       0.057700
     40 H7          -3.1400    -0.8420    -0.5860 hc         1 JDC       0.057700
     41 H8          -3.0070     1.4690    -2.3690 ha         1 JDC       0.111000
     42 H9          -4.4130     3.4890    -2.6670 ha         1 JDC       0.114000
     43 H10         -5.7760     4.9380    -1.6940 ho         1 JDC       0.464000
     44 H11         -5.5380     3.3360     1.4950 ha         1 JDC       0.128000
     45 H12         -1.5140    -2.0500    -0.4290 hn         1 JDC       0.318500
     46 H13          0.1190    -3.7520     1.3620 h1         1 JDC       0.078700
     47 H14         -1.7760    -4.9200    -0.7240 hc         1 JDC       0.042700
     48 H15          0.1860    -6.3320     1.1670 hc         1 JDC       0.036200
     49 H16         -1.0350    -7.1510     0.1710 hc         1 JDC       0.036200
     50 H17          0.2820    -6.2710    -0.6080 hc         1 JDC       0.036200
     51 H18         -1.9560    -5.0920     2.3320 hc         1 JDC       0.036200
     52 H19         -3.0990    -4.2610     1.2520 hc         1 JDC       0.036200
     53 H20         -2.9530    -6.0210     1.1930 hc         1 JDC       0.036200
     54 H21          1.4210    -4.2870    -0.5900 h1         1 JDC       0.035700
     55 H22          0.1640    -3.6820    -1.6710 h1         1 JDC       0.035700
     56 H24          1.4800    -1.9700     1.3760 h1         1 JDC       0.039200
     57 H25          2.9380    -2.5600     0.5920 h1         1 JDC       0.039200
     58 H26          3.2620    -0.2760     1.3660 hc         1 JDC       0.050700
     59 H27          0.8970     0.4020     1.5350 hc         1 JDC       0.040700
     60 H28          1.8310     1.6510     0.7190 hc         1 JDC       0.040700
     61 H29          0.7760     0.5830    -0.2170 hc         1 JDC       0.040700
     62 H30          1.8880     0.1320    -2.2310 hc         1 JDC       0.048200
     63 H31          3.3540    -0.4940    -2.9690 hc         1 JDC       0.048200
     64 H32          2.9690    -2.7260    -1.9860 h1         1 JDC       0.028200
     65 H33          1.5420    -2.1820    -2.8660 h1         1 JDC       0.028200
     66 H34          4.6780    -2.0500    -0.7370 hc         1 JDC       0.036700
     67 H35          5.5110    -0.7560    -1.5950 hc         1 JDC       0.036700
     68 H36          5.4400    -0.7510     0.1690 hc         1 JDC       0.036700
     69 H37          4.8520     1.3450     1.1460 ha         1 JDC       0.127000
     70 H38          5.9300     4.7340     1.1550 ho         1 JDC       0.463000
     71 H39          5.1790     5.1200    -0.8880 ha         1 JDC       0.112000
     72 H40          4.0380     4.1590    -2.8740 ha         1 JDC       0.110000
     73 H41          3.2990     1.8250    -2.8830 ha         1 JDC       0.114000
@<TRIPOS>BOND
     1     1     2 1   
     2     1    11 1   
     3     1    35 1   
     4     1    36 1   
     5     2     3 1   
     6     2    37 1   
     7     3     4 1   
     8     3    12 1   
     9     3    38 1   
    10     4     5 1   
    11     4    39 1   
    12     4    40 1   
    13     5     6 ar  
    14     5    11 ar  
    15     6     7 ar  
    16     6    41 1   
    17     7     8 ar  
    18     7    42 1   
    19     8     9 1   
    20     8    10 ar  
    21     9    43 1   
    22    10    11 ar  
    23    10    44 1   
    24    12    13 2   
    25    12    14 1   
    26    14    15 1   
    27    14    45 1   
    28    15    16 1   
    29    15    19 1   
    30    15    46 1   
    31    16    17 1   
    32    16    18 1   
    33    16    47 1   
    34    17    48 1   
    35    17    49 1   
    36    17    50 1   
    37    18    51 1   
    38    18    52 1   
    39    18    53 1   
    40    19    20 1   
    41    19    54 1   
    42    19    55 1   
    43    20    21 1   
    44    20    26 1   
    45    21    22 1   
    46    21    56 1   
    47    21    57 1   
    48    22    23 1   
    49    22    24 1   
    50    22    58 1   
    51    23    59 1   
    52    23    60 1   
    53    23    61 1   
    54    24    25 1   
    55    24    27 1   
    56    24    28 1   
    57    25    26 1   
    58    25    62 1   
    59    25    63 1   
    60    26    64 1   
    61    26    65 1   
    62    27    66 1   
    63    27    67 1   
    64    27    68 1   
    65    28    29 ar  
    66    28    34 ar  
    67    29    30 ar  
    68    29    69 1   
    69    30    31 1   
    70    30    32 ar  
    71    31    70 1   
    72    32    33 ar  
    73    32    71 1   
    74    33    34 ar  
    75    33    72 1   
    76    34    73 1   
@<TRIPOS>SUBSTRUCTURE
     1 JDC         1 TEMP              0 ****  ****    0 ROOT
