@<TRIPOS>MOLECULE
JDC
   73    76     1     0     0
SMALL
abcg2


@<TRIPOS>ATOM
      1 C1          -2.5860     1.9850     1.4120 c6         1 JDC       0.196100
      2 N2          -2.1090     0.6690     1.7770 n7         1 JDC      -0.834400
      3 C3          -2.1580    -0.2370     0.6510 c6         1 JDC       0.086500
      4 C4          -3.5890    -0.4670     0.1490 c6         1 JDC      -0.058100
      5 C4A         -4.3360     0.8340     0.0090 ca         1 JDC      -0.116300
      6 C5          -5.5130     0.8980    -0.7330 ca         1 JDC      -0.065000
      7 C6          -6.2260     2.0780    -0.8690 ca         1 JDC      -0.203000
      8 C7          -5.7600     3.2360    -0.2500 ca         1 JDC       0.140100
      9 O7          -6.4050     4.4190    -0.3390 oh         1 JDC      -0.534100
     10 C8          -4.5860     3.1880     0.4910 ca         1 JDC      -0.140000
     11 C8A         -3.8770     1.9990     0.6250 ca         1 JDC      -0.077300
     12 C1A         -1.5250    -1.5690     1.0280 c          1 JDC       0.605100
     13 O1          -1.5020    -1.9610     2.1870 o          1 JDC      -0.605100
     14 N2A         -1.0590    -2.2730    -0.0130 ns         1 JDC      -0.484900
     15 C2A         -0.3370    -3.5250     0.0940 c3         1 JDC       0.111700
     16 C3A         -1.2140    -4.7260    -0.3010 c3         1 JDC      -0.070700
     17 C3D         -0.4350    -6.0370    -0.2100 c3         1 JDC      -0.086600
     18 C3B         -2.4710    -4.8120     0.5560 c3         1 JDC      -0.086600
     19 C4D          0.9270    -3.4500    -0.7770 c3         1 JDC       0.150800
     20 N11          1.5800    -2.1620    -0.7520 n3         1 JDC      -0.727600
     21 C21          2.1230    -1.8180     0.5470 c6         1 JDC       0.162800
     22 C31          2.6370    -0.3780     0.5720 c6         1 JDC      -0.042700
     23 C34          1.4720     0.6000     0.4430 c3         1 JDC      -0.088100
     24 C41          3.7360    -0.1690    -0.5050 c6         1 JDC       0.004300
     25 C51          3.1780    -0.6610    -1.8480 c6         1 JDC      -0.066400
     26 C61          2.6070    -2.0700    -1.7710 c6         1 JDC       0.170800
     27 C4E          4.9950    -0.9810    -0.1570 c3         1 JDC      -0.086100
     28 C1C          4.1570     1.2960    -0.5560 ca         1 JDC      -0.022300
     29 C2C          4.6330     1.9000     0.6080 ca         1 JDC      -0.147000
     30 C3C          5.0500     3.2250     0.6190 ca         1 JDC       0.138100
     31 O3C          5.4930     3.7310     1.7910 oh         1 JDC      -0.536100
     32 C4C          5.0010     3.9790    -0.5510 ca         1 JDC      -0.208000
     33 C5C          4.5340     3.3840    -1.7100 ca         1 JDC      -0.070000
     34 C6C          4.1140     2.0590    -1.7220 ca         1 JDC      -0.148000
     35 H1          -2.7000     2.5780     2.3220 h1         1 JDC       0.065200
     36 H2          -1.8110     2.4860     0.8210 h1         1 JDC       0.065200
     37 H3          -2.6690     0.2980     2.5350 hn         1 JDC       0.432000
     38 H5          -1.5730     0.2160    -0.1570 h1         1 JDC       0.074700
     39 H6          -3.5750    -0.9970    -0.8070 hc         1 JDC       0.057700
     40 H7          -4.1150    -1.1220     0.8540 hc         1 JDC       0.057700
     41 H8          -5.8820     0.0040    -1.2220 ha         1 JDC       0.111000
     42 H9          -7.1380     2.0960    -1.4550 ha         1 JDC       0.114000
     43 H10         -7.1990     4.3260    -0.8760 ho         1 JDC       0.464000
     44 H11         -4.2230     4.0900     0.9730 ha         1 JDC       0.128000
     45 H12         -1.0140    -1.8060    -0.9060 hn         1 JDC       0.318500
     46 H13         -0.0550    -3.6450     1.1430 h1         1 JDC       0.078700
     47 H14         -1.5180    -4.5790    -1.3450 hc         1 JDC       0.042700
     48 H15         -0.0110    -6.1710     0.7890 hc         1 JDC       0.036200
     49 H16         -1.0960    -6.8840    -0.3990 hc         1 JDC       0.036200
     50 H17          0.3810    -6.0970    -0.9290 hc         1 JDC       0.036200
     51 H18         -2.2210    -4.9580     1.6090 hc         1 JDC       0.036200
     52 H19         -3.0890    -3.9180     0.4780 hc         1 JDC       0.036200
     53 H20         -3.0840    -5.6590     0.2420 hc         1 JDC       0.036200
     54 H21          1.6080    -4.2630    -0.4780 h1         1 JDC       0.035700
     55 H22          0.6410    -3.6570    -1.8150 h1         1 JDC       0.035700
     56 H24          1.3430    -1.9120     1.3060 h1         1 JDC       0.039200
     57 H25          2.9230    -2.5170     0.8470 h1         1 JDC       0.039200
     58 H26          3.0910    -0.2310     1.5580 hc         1 JDC       0.050700
     59 H27          0.7530     0.4500     1.2510 hc         1 JDC       0.040700
     60 H28          1.8050     1.6370     0.4920 hc         1 JDC       0.040700
     61 H29          0.9300     0.4650    -0.4940 hc         1 JDC       0.040700
     62 H30          2.3810     0.0030    -2.1930 hc         1 JDC       0.048200
     63 H31          3.9590    -0.6410    -2.6130 hc         1 JDC       0.048200
     64 H32          3.4110    -2.8070    -1.6060 h1         1 JDC       0.028200
     65 H33          2.1640    -2.3170    -2.7400 h1         1 JDC       0.028200
     66 H34          4.8050    -2.0530    -0.1260 hc         1 JDC       0.036700
     67 H35          5.7720    -0.8110    -0.9050 hc         1 JDC       0.036700
     68 H36          5.4000    -0.6950     0.8150 hc         1 JDC       0.036700
     69 H37          4.6810     1.3390     1.5340 ha         1 JDC       0.127000
     70 H38          5.7660     4.6480     1.6760 ho         1 JDC       0.463000
     71 H39          5.3240     5.0150    -0.5560 ha         1 JDC       0.112000
     72 H40          4.4980     3.9640    -2.6240 ha         1 JDC       0.110000
     73 H41          3.7570     1.6390    -2.6510 ha         1 JDC       0.114000
@<TRIPOS>BOND
     1     1     2 1   
     2     1    11 1   
     3     1    35 1   
     4     1    36 1   
     5     2     3 1   
     6     2    37 1   
     7     3     4 1   
     8     3    12 1   
     9     3    38 1   
    10     4     5 1   
    11     4    39 1   
    12     4    40 1   
    13     5     6 ar  
    14     5    11 ar  
    15     6     7 ar  
    16     6    41 1   
    17     7     8 ar  
    18     7    42 1   
    19     8     9 1   
    20     8    10 ar  
    21     9    43 1   
    22    10    11 ar  
    23    10    44 1   
    24    12    13 2   
    25    12    14 1   
    26    14    15 1   
    27    14    45 1   
    28    15    16 1   
    29    15    19 1   
    30    15    46 1   
    31    16    17 1   
    32    16    18 1   
    33    16    47 1   
    34    17    48 1   
    35    17    49 1   
    36    17    50 1   
    37    18    51 1   
    38    18    52 1   
    39    18    53 1   
    40    19    20 1   
    41    19    54 1   
    42    19    55 1   
    43    20    21 1   
    44    20    26 1   
    45    21    22 1   
    46    21    56 1   
    47    21    57 1   
    48    22    23 1   
    49    22    24 1   
    50    22    58 1   
    51    23    59 1   
    52    23    60 1   
    53    23    61 1   
    54    24    25 1   
    55    24    27 1   
    56    24    28 1   
    57    25    26 1   
    58    25    62 1   
    59    25    63 1   
    60    26    64 1   
    61    26    65 1   
    62    27    66 1   
    63    27    67 1   
    64    27    68 1   
    65    28    29 ar  
    66    28    34 ar  
    67    29    30 ar  
    68    29    69 1   
    69    30    31 1   
    70    30    32 ar  
    71    31    70 1   
    72    32    33 ar  
    73    32    71 1   
    74    33    34 ar  
    75    33    72 1   
    76    34    73 1   
@<TRIPOS>SUBSTRUCTURE
     1 JDC         1 TEMP              0 ****  ****    0 ROOT
