@<TRIPOS>MOLECULE
JDE
   38    40     1     0     0
SMALL
abcg2


@<TRIPOS>ATOM
      1 C10          3.8050    -0.4630    -1.5270 cc         1 JDE       0.299900
      2 N12          5.8120    -1.0730    -1.4100 na         1 JDE      -0.000200
      3 C13          5.4810    -0.8390    -0.1410 cd         1 JDE      -0.096000
      4 C15         -0.9750    -0.1300     0.8600 ca         1 JDE      -0.113000
      5 C17         -3.1390    -1.0170     0.0160 cp         1 JDE      -0.088000
      6 C20         -4.8280    -3.1380    -0.3090 ca         1 JDE       0.337900
      7 C21         -4.7680    -2.1770    -1.3070 ca         1 JDE      -0.165000
      8 C22         -3.9100    -1.1030    -1.1410 ca         1 JDE      -0.065000
      9 C01         -3.1510     4.0250    -0.8980 c3         1 JDE       0.148900
     10 C03         -1.6710     2.4480     0.0780 ca         1 JDE       0.139100
     11 C04         -0.4410     2.2080     0.6940 ca         1 JDE      -0.118000
     12 C05         -0.0970     0.9260     1.0850 ca         1 JDE      -0.061300
     13 C06          1.2370     0.6670     1.7190 c3         1 JDE       0.212900
     14 O07          2.1290     0.2780     0.6650 os         1 JDE      -0.437100
     15 C09          4.1600    -0.4320    -0.1620 cc         1 JDE      -0.277600
     16 N11          4.8160    -0.8530    -2.2700 nd         1 JDE      -0.526800
     17 O14          3.7800    -0.0660     2.1390 o          1 JDE      -0.503000
     18 C16         -2.2020     0.0980     0.2500 cp         1 JDE       0.000000
     19 C18         -3.2900    -2.0380     0.9550 ca         1 JDE       0.347900
     20 N19         -4.1060    -3.0710     0.8030 nb         1 JDE      -0.665000
     21 C23         -2.5500     1.3930    -0.1410 ca         1 JDE      -0.180000
     22 H1           2.8570    -0.2150    -1.9790 h4         1 JDE       0.054100
     23 H2           6.7070    -1.3860    -1.7520 hn         1 JDE       0.376000
     24 H3           6.1770    -0.9710     0.6700 h4         1 JDE       0.171000
     25 H4          -0.6870    -1.1340     1.1470 ha         1 JDE       0.123000
     26 H5          -5.4840    -3.9950    -0.4130 h4         1 JDE       0.020100
     27 H6          -5.3730    -2.2750    -2.1980 ha         1 JDE       0.124000
     28 H7          -3.8270    -0.3490    -1.9140 ha         1 JDE       0.120000
     29 H8          -4.0100     3.7790    -0.2680 h1         1 JDE       0.041700
     30 H9          -3.1480     5.0960    -1.0830 h1         1 JDE       0.041700
     31 H10         -3.2520     3.5030    -1.8530 h1         1 JDE       0.041700
     32 H11          0.2370     3.0360     0.8670 ha         1 JDE       0.132000
     33 H12          1.6150     1.5610     2.2170 h1         1 JDE       0.057700
     34 H13          1.1650    -0.1310     2.4610 h1         1 JDE       0.057700
     35 H14         -2.7290    -2.0030     1.8830 h4         1 JDE       0.022100
     36 H15         -3.5210     1.5650    -0.5870 ha         1 JDE       0.119000
     37 C08          3.3670    -0.0640     1.0030 c          1 JDE       0.648700
     38 O02         -1.9250     3.7240    -0.2600 os         1 JDE      -0.340100
@<TRIPOS>BOND
     1     1    15 1   
     2     1    16 2   
     3     1    22 1   
     4     2     3 1   
     5     2    16 1   
     6     2    23 1   
     7     3    15 2   
     8     3    24 1   
     9     4    12 ar  
    10     4    18 ar  
    11     4    25 1   
    12     5     8 ar  
    13     5    18 1   
    14     5    19 ar  
    15     6     7 ar  
    16     6    20 ar  
    17     6    26 1   
    18     7     8 ar  
    19     7    27 1   
    20     8    28 1   
    21     9    29 1   
    22     9    30 1   
    23     9    31 1   
    24     9    38 1   
    25    10    11 ar  
    26    10    21 ar  
    27    10    38 1   
    28    11    12 ar  
    29    11    32 1   
    30    12    13 1   
    31    13    14 1   
    32    13    33 1   
    33    13    34 1   
    34    14    37 1   
    35    15    37 1   
    36    17    37 2   
    37    18    21 ar  
    38    19    20 ar  
    39    19    35 1   
    40    21    36 1   
@<TRIPOS>SUBSTRUCTURE
     1 JDE         1 TEMP              0 ****  ****    0 ROOT
