@<TRIPOS>MOLECULE
JDE
   38    40     1     0     0
SMALL
No Charge or Current Charge


@<TRIPOS>ATOM
      1 C10          3.9290    -0.5090    -1.4580 cc         1 JDE       0.299900
      2 N12          5.9810    -1.0520    -1.4130 na         1 JDE      -0.000200
      3 C13          5.6530    -0.7830    -0.0780 cd         1 JDE      -0.096000
      4 C15         -0.9890    -0.1530     0.8360 ca         1 JDE      -0.113000
      5 C17         -3.2130    -1.0540     0.0130 cp         1 JDE      -0.088000
      6 C20         -4.9630    -3.1930    -0.3060 ca         1 JDE       0.337900
      7 C21         -4.9650    -2.1630    -1.2600 ca         1 JDE      -0.165000
      8 C22         -4.0840    -1.0810    -1.1040 ca         1 JDE      -0.065000
      9 C01         -3.1960     4.1350    -0.9270 c3         1 JDE       0.148900
     10 C03         -1.6700     2.4590     0.0560 ca         1 JDE       0.139100
     11 C04         -0.4260     2.2030     0.6520 ca         1 JDE      -0.118000
     12 C05         -0.0780     0.8990     1.0480 ca         1 JDE      -0.061300
     13 C06          1.2760     0.6250     1.6890 c3         1 JDE       0.212900
     14 O07          2.1960     0.2400     0.6530 os         1 JDE      -0.437100
     15 C09          4.3340    -0.4360    -0.1210 cc         1 JDE      -0.277600
     16 N11          4.8950    -0.8790    -2.2780 nd         1 JDE      -0.526800
     17 O14          3.8890    -0.0070     2.1670 o          1 JDE      -0.503000
     18 C16         -2.2520     0.0730     0.2340 cp         1 JDE       0.000000
     19 C18         -3.2940    -2.1490     0.9150 ca         1 JDE       0.347900
     20 N19         -4.1440    -3.1940     0.7690 nb         1 JDE      -0.665000
     21 C23         -2.5770     1.3980    -0.1510 ca         1 JDE      -0.180000
     22 H1           2.9470    -0.3020    -1.8640 h4         1 JDE       0.054100
     23 H2           6.8960    -1.3430    -1.7580 hn         1 JDE       0.376000
     24 H3           6.3550    -0.8590     0.7470 h4         1 JDE       0.171000
     25 H4          -0.7030    -1.1610     1.1270 ha         1 JDE       0.123000
     26 H5          -5.6370    -4.0440    -0.4060 h4         1 JDE       0.020100
     27 H6          -5.6410    -2.2110    -2.1090 ha         1 JDE       0.124000
     28 H7          -4.0680    -0.2850    -1.8450 ha         1 JDE       0.120000
     29 H8          -4.0450     3.9030    -0.2720 h1         1 JDE       0.041700
     30 H9          -3.2090     5.2130    -1.1310 h1         1 JDE       0.041700
     31 H10         -3.3300     3.6070    -1.8800 h1         1 JDE       0.041700
     32 H11          0.2700     3.0230     0.8050 ha         1 JDE       0.132000
     33 H12          1.6280     1.5280     2.2060 h1         1 JDE       0.057700
     34 H13          1.1730    -0.1730     2.4350 h1         1 JDE       0.057700
     35 H14         -2.6600    -2.1820     1.8000 h4         1 JDE       0.022100
     36 H15         -3.5480     1.5870    -0.5970 ha         1 JDE       0.119000
     37 C08          3.4830    -0.0550     1.0130 c          1 JDE       0.648700
     38 O02         -1.9530     3.7610    -0.3060 os         1 JDE      -0.340100
@<TRIPOS>BOND
     1     1    15 1   
     2     1    16 2   
     3     1    22 1   
     4     2     3 1   
     5     2    16 1   
     6     2    23 1   
     7     3    15 2   
     8     3    24 1   
     9     4    12 ar  
    10     4    18 ar  
    11     4    25 1   
    12     5     8 ar  
    13     5    18 1   
    14     5    19 ar  
    15     6     7 ar  
    16     6    20 ar  
    17     6    26 1   
    18     7     8 ar  
    19     7    27 1   
    20     8    28 1   
    21     9    29 1   
    22     9    30 1   
    23     9    31 1   
    24     9    38 1   
    25    10    11 ar  
    26    10    21 ar  
    27    10    38 1   
    28    11    12 ar  
    29    11    32 1   
    30    12    13 1   
    31    13    14 1   
    32    13    33 1   
    33    13    34 1   
    34    14    37 1   
    35    15    37 1   
    36    17    37 2   
    37    18    21 ar  
    38    19    20 ar  
    39    19    35 1   
    40    21    36 1   
@<TRIPOS>SUBSTRUCTURE
     1 JDE         1 TEMP              0 ****  ****    0 ROOT
