@<TRIPOS>MOLECULE
JDF
   74    78     1     0     0
SMALL
No Charge or Current Charge


@<TRIPOS>ATOM
      1 C1          13.1240     0.8260    30.3360 c6         1 JDF       0.357300
      2 C2          13.5090     2.2390    30.8820 c6         1 JDF       0.153300
      3 C3          14.8750     2.6630    30.2490 c6         1 JDF       0.176300
      4 O3          15.3530     3.9150    30.7750 oh         1 JDF      -0.641000
      5 C4          15.9600     1.5670    30.4940 c6         1 JDF       0.093300
      6 C5          15.4330     0.1820    29.9940 c6         1 JDF       0.154300
      7 C6          16.4230    -0.9930    30.2950 c3         1 JDF       0.171600
      8 CAH         10.1170    -2.4330    32.2260 c6         1 JDF      -0.033700
      9 CAI         10.6070    -3.7140    31.5140 c6         1 JDF      -0.070400
     10 CAJ         10.3630    -4.9370    32.4320 c6         1 JDF      -0.063400
     11 CAK         11.1090    -4.8950    33.8050 c5         1 JDF      -0.045000
     12 CAN         12.6300    -5.2600    33.6950 c5         1 JDF      -0.059400
     13 CAL         10.6740    -6.1280    34.6870 c5         1 JDF      -0.040200
     14 CAM         11.8280    -6.3470    35.6470 c2         1 JDF      -0.135400
     15 CAA         11.7970    -7.1360    36.7340 c2         1 JDF      -0.318000
     16 CAO         12.9750    -5.4620    35.1940 c5         1 JDF       0.207200
     17 OAW         14.2240    -6.1160    35.3660 oh         1 JDF      -0.642000
     18 CAP         12.9640    -4.1230    35.9730 c6         1 JDF      -0.095400
     19 CAQ         11.5570    -3.4510    35.9380 c6         1 JDF      -0.061400
     20 CAR         10.8260    -3.5110    34.5450 c6         1 JDF      -0.037700
     21 CAS         10.9760    -2.1980    33.6130 c6         1 JDF      -0.023000
     22 CAT         12.5040    -1.8300    33.3700 c3         1 JDF      -0.089100
     23 CAU         10.3290    -0.9280    34.3670 c6         1 JDF      -0.076400
     24 CAV         10.1640     0.3650    33.4790 c6         1 JDF      -0.075400
     25 CAF          9.4010     0.1080    32.1430 c6         1 JDF      -0.059400
     26 CAE          9.9410    -1.1130    31.2500 c6         1 JDF      -0.085000
     27 CAG          8.8370    -1.3310    30.1240 c3         1 JDF      -0.092100
     28 OAD         11.5270    -1.1940    29.3710 o          1 JDF      -0.464000
     29 O1          11.9090     0.3780    30.9490 os         1 JDF      -0.452100
     30 O5          14.1700    -0.1150    30.6400 os         1 JDF      -0.457000
     31 O6          15.9240    -2.2800    29.8810 oh         1 JDF      -0.698000
     32 O4          17.1940     1.9520    29.8460 oh         1 JDF      -0.720000
     33 O2          12.4610     3.2080    30.6200 oh         1 JDF      -0.696000
     34 H1          12.9830     0.8890    29.2460 h2         1 JDF       0.069700
     35 H2          13.6570     2.1410    31.9680 h1         1 JDF       0.061700
     36 H3          14.7280     2.7540    29.1610 h1         1 JDF       0.057700
     37 H4          16.2990     3.9490    30.5070 ho         1 JDF       0.457000
     38 H5          16.1200     1.4900    31.5810 h1         1 JDF       0.054700
     39 H6          15.2760     0.2220    28.9050 h1         1 JDF       0.070700
     40 H7          17.3730    -0.7860    29.7850 h1         1 JDF       0.024200
     41 H8          16.6260    -1.0010    31.3750 h1         1 JDF       0.024200
     42 H9           9.0910    -2.6510    32.5570 hc         1 JDF       0.041700
     43 H11         11.6660    -3.6410    31.2360 hc         1 JDF       0.055700
     44 H12          9.2830    -5.0310    32.6150 hc         1 JDF       0.040200
     45 H13         10.6460    -5.8490    31.8890 hc         1 JDF       0.040200
     46 H14         12.7850    -6.1820    33.1220 hc         1 JDF       0.062200
     47 H15         13.2540    -4.5020    33.2230 hc         1 JDF       0.062200
     48 H16          9.7280    -5.9570    35.2130 hc         1 JDF       0.052200
     49 H17         10.5320    -7.0270    34.0740 hc         1 JDF       0.052200
     50 H18         12.6500    -7.2210    37.4080 ha         1 JDF       0.162000
     51 H19         10.9100    -7.7150    36.9920 ha         1 JDF       0.162000
     52 H20         14.0210    -7.0750    35.3470 ho         1 JDF       0.441000
     53 H21         13.2480    -4.3010    37.0190 hc         1 JDF       0.043200
     54 H22         13.7330    -3.4570    35.5660 hc         1 JDF       0.043200
     55 H23         11.6370    -2.4240    36.3100 hc         1 JDF       0.039700
     56 H24         10.9220    -3.9610    36.6770 hc         1 JDF       0.039700
     57 H25          9.7550    -3.5410    34.7920 hc         1 JDF       0.035700
     58 H26         13.0800    -1.8210    34.2970 hc         1 JDF       0.042367
     59 H27         13.0000    -2.4910    32.6570 hc         1 JDF       0.042367
     60 H28         12.6260    -0.8260    32.9650 hc         1 JDF       0.042367
     61 H29          9.3380    -1.2120    34.7470 hc         1 JDF       0.037700
     62 H30         10.9200    -0.6580    35.2510 hc         1 JDF       0.037700
     63 H31         11.1430     0.8180    33.2880 hc         1 JDF       0.047700
     64 H32          9.6150     1.1210    34.0580 hc         1 JDF       0.047700
     65 H33          9.3800     1.0320    31.5480 hc         1 JDF       0.043700
     66 H34          8.3520    -0.0900    32.4050 hc         1 JDF       0.043700
     67 H35          7.8650    -1.5840    30.5640 hc         1 JDF       0.045367
     68 H36          8.6990    -0.4240    29.5210 hc         1 JDF       0.045367
     69 H37          9.0970    -2.1430    29.4350 hc         1 JDF       0.045367
     70 H38         16.5850    -2.9510    30.1700 ho         1 JDF       0.504000
     71 H39         17.9380     1.5040    30.3160 ho         1 JDF       0.512000
     72 H40         11.6350     2.8310    31.0040 ho         1 JDF       0.516000
     73 CAC         11.2810    -0.7430    30.4830 c          1 JDF       0.616100
     74 H10         10.0540    -3.8690    30.5800 hc         1 JDF       0.055700
@<TRIPOS>BOND
     1     1     2 1   
     2     1    29 1   
     3     1    30 1   
     4     1    34 1   
     5     2     3 1   
     6     2    33 1   
     7     2    35 1   
     8     3     4 1   
     9     3     5 1   
    10     3    36 1   
    11     4    37 1   
    12     5     6 1   
    13     5    32 1   
    14     5    38 1   
    15     6     7 1   
    16     6    30 1   
    17     6    39 1   
    18     7    31 1   
    19     7    40 1   
    20     7    41 1   
    21     8     9 1   
    22     8    21 1   
    23     8    26 1   
    24     8    42 1   
    25     9    10 1   
    26     9    43 1   
    27     9    74 1   
    28    10    11 1   
    29    10    44 1   
    30    10    45 1   
    31    11    12 1   
    32    11    13 1   
    33    11    20 1   
    34    12    16 1   
    35    12    46 1   
    36    12    47 1   
    37    13    14 1   
    38    13    48 1   
    39    13    49 1   
    40    14    15 2   
    41    14    16 1   
    42    15    50 1   
    43    15    51 1   
    44    16    17 1   
    45    16    18 1   
    46    17    52 1   
    47    18    19 1   
    48    18    53 1   
    49    18    54 1   
    50    19    20 1   
    51    19    55 1   
    52    19    56 1   
    53    20    21 1   
    54    20    57 1   
    55    21    22 1   
    56    21    23 1   
    57    22    58 1   
    58    22    59 1   
    59    22    60 1   
    60    23    24 1   
    61    23    61 1   
    62    23    62 1   
    63    24    25 1   
    64    24    63 1   
    65    24    64 1   
    66    25    26 1   
    67    25    65 1   
    68    25    66 1   
    69    26    27 1   
    70    26    73 1   
    71    27    67 1   
    72    27    68 1   
    73    27    69 1   
    74    28    73 2   
    75    29    73 1   
    76    31    70 1   
    77    32    71 1   
    78    33    72 1   
@<TRIPOS>SUBSTRUCTURE
     1 JDF         1 TEMP              0 ****  ****    0 ROOT
