@<TRIPOS>MOLECULE
JDF
   74    78     1     0     0
SMALL
abcg2


@<TRIPOS>ATOM
      1 C1          13.2100     0.6980    30.1410 c6         1 JDF       0.357300
      2 C2          13.2480     2.2000    29.8710 c6         1 JDF       0.153300
      3 C3          14.6320     2.5480    29.3440 c6         1 JDF       0.176300
      4 O3          14.7110     3.9390    29.1910 oh         1 JDF      -0.641000
      5 C4          15.7140     2.0260    30.2910 c6         1 JDF       0.093300
      6 C5          15.5110     0.5300    30.5510 c6         1 JDF       0.154300
      7 C6          16.4740    -0.0160    31.5810 c3         1 JDF       0.171600
      8 CAH         10.2670    -2.3330    32.4330 c6         1 JDF      -0.033700
      9 CAI         10.3300    -3.6450    31.6540 c6         1 JDF      -0.070400
     10 CAJ          9.8780    -4.7870    32.5480 c6         1 JDF      -0.063400
     11 CAK         10.7700    -4.9450    33.7690 c5         1 JDF      -0.045000
     12 CAN         12.1310    -5.5770    33.4410 c5         1 JDF      -0.059400
     13 CAL         10.1980    -6.0010    34.7450 c5         1 JDF      -0.040200
     14 CAM         11.3960    -6.6120    35.4300 c2         1 JDF      -0.135400
     15 CAA         11.3830    -7.5520    36.3650 c2         1 JDF      -0.318000
     16 CAO         12.6380    -5.9890    34.8170 c5         1 JDF       0.207200
     17 OAW         13.7400    -6.8520    34.7050 oh         1 JDF      -0.642000
     18 CAP         12.9950    -4.7150    35.5880 c6         1 JDF      -0.095400
     19 CAQ         11.7970    -3.7800    35.7640 c6         1 JDF      -0.061400
     20 CAR         10.9110    -3.5950    34.5140 c6         1 JDF      -0.037700
     21 CAS         11.2400    -2.3360    33.6470 c6         1 JDF      -0.023000
     22 CAT         12.7160    -2.2590    33.2410 c3         1 JDF      -0.089100
     23 CAU         10.9170    -1.0960    34.5080 c6         1 JDF      -0.076400
     24 CAV         10.9300     0.2140    33.7300 c6         1 JDF      -0.075400
     25 CAF          9.9880     0.1490    32.5380 c6         1 JDF      -0.059400
     26 CAE         10.2660    -1.0250    31.5870 c6         1 JDF      -0.085000
     27 CAG          9.1210    -1.0600    30.5550 c3         1 JDF      -0.092100
     28 OAD         12.0370    -1.7150    30.0910 o          1 JDF      -0.464000
     29 O1          11.9880     0.4100    30.7700 os         1 JDF      -0.452100
     30 O5          14.2000     0.3260    31.0440 os         1 JDF      -0.457000
     31 O6          16.2530    -1.3980    31.7250 oh         1 JDF      -0.698000
     32 O4          16.9550     2.2860    29.6760 oh         1 JDF      -0.720000
     33 O2          12.2950     2.5680    28.9120 oh         1 JDF      -0.696000
     34 H1          13.3030     0.1460    29.1940 h2         1 JDF       0.069700
     35 H2          13.0920     2.7260    30.8260 h1         1 JDF       0.061700
     36 H3          14.7660     2.0370    28.3750 h1         1 JDF       0.057700
     37 H4          15.5960     4.1480    28.8730 ho         1 JDF       0.457000
     38 H5          15.6260     2.5630    31.2460 h1         1 JDF       0.054700
     39 H6          15.6470    -0.0160    29.6030 h1         1 JDF       0.070700
     40 H7          17.4950     0.1960    31.2430 h1         1 JDF       0.024200
     41 H8          16.3280     0.5240    32.5270 h1         1 JDF       0.024200
     42 H9           9.2620    -2.3160    32.8820 hc         1 JDF       0.041700
     43 H11         11.3340    -3.8450    31.2760 hc         1 JDF       0.055700
     44 H12          8.8480    -4.6000    32.8770 hc         1 JDF       0.040200
     45 H13          9.8580    -5.7280    31.9900 hc         1 JDF       0.040200
     46 H14         11.9800    -6.4620    32.8120 hc         1 JDF       0.062200
     47 H15         12.8290    -4.9220    32.9210 hc         1 JDF       0.062200
     48 H16          9.4710    -5.5760    35.4420 hc         1 JDF       0.052200
     49 H17          9.6730    -6.7720    34.1720 hc         1 JDF       0.052200
     50 H18         12.2960    -7.9620    36.7830 ha         1 JDF       0.162000
     51 H19         10.4560    -7.9580    36.7530 ha         1 JDF       0.162000
     52 H20         14.1260    -6.9760    35.5790 ho         1 JDF       0.441000
     53 H21         13.3770    -4.9850    36.5790 hc         1 JDF       0.043200
     54 H22         13.8120    -4.2160    35.0600 hc         1 JDF       0.043200
     55 H23         12.1540    -2.8200    36.1380 hc         1 JDF       0.039700
     56 H24         11.1720    -4.1830    36.5650 hc         1 JDF       0.039700
     57 H25          9.9000    -3.3880    34.8920 hc         1 JDF       0.035700
     58 H26         13.3580    -2.3850    34.1130 hc         1 JDF       0.042367
     59 H27         13.0040    -3.0040    32.5040 hc         1 JDF       0.042367
     60 H28         12.9800    -1.2890    32.8250 hc         1 JDF       0.042367
     61 H29          9.9190    -1.2250    34.9440 hc         1 JDF       0.037700
     62 H30         11.6140    -1.0260    35.3460 hc         1 JDF       0.037700
     63 H31         11.9420     0.4680    33.4090 hc         1 JDF       0.047700
     64 H32         10.6170     1.0250    34.3920 hc         1 JDF       0.047700
     65 H33          9.9760     1.0950    31.9940 hc         1 JDF       0.043700
     66 H34          8.9690     0.0080    32.9140 hc         1 JDF       0.043700
     67 H35          8.1790    -1.2780    31.0610 hc         1 JDF       0.045367
     68 H36          9.0180    -0.0910    30.0640 hc         1 JDF       0.045367
     69 H37          9.2690    -1.8120    29.7820 hc         1 JDF       0.045367
     70 H38         16.8860    -1.7360    32.3650 ho         1 JDF       0.504000
     71 H39         17.6140     2.4640    30.3520 ho         1 JDF       0.512000
     72 H40         11.4230     2.5490    29.3190 ho         1 JDF       0.516000
     73 CAC         11.5280    -0.8530    30.7570 c          1 JDF       0.616100
     74 H10          9.6810    -3.6060    30.7780 hc         1 JDF       0.055700
@<TRIPOS>BOND
     1     1     2 1   
     2     1    29 1   
     3     1    30 1   
     4     1    34 1   
     5     2     3 1   
     6     2    33 1   
     7     2    35 1   
     8     3     4 1   
     9     3     5 1   
    10     3    36 1   
    11     4    37 1   
    12     5     6 1   
    13     5    32 1   
    14     5    38 1   
    15     6     7 1   
    16     6    30 1   
    17     6    39 1   
    18     7    31 1   
    19     7    40 1   
    20     7    41 1   
    21     8     9 1   
    22     8    21 1   
    23     8    26 1   
    24     8    42 1   
    25     9    10 1   
    26     9    43 1   
    27     9    74 1   
    28    10    11 1   
    29    10    44 1   
    30    10    45 1   
    31    11    12 1   
    32    11    13 1   
    33    11    20 1   
    34    12    16 1   
    35    12    46 1   
    36    12    47 1   
    37    13    14 1   
    38    13    48 1   
    39    13    49 1   
    40    14    15 2   
    41    14    16 1   
    42    15    50 1   
    43    15    51 1   
    44    16    17 1   
    45    16    18 1   
    46    17    52 1   
    47    18    19 1   
    48    18    53 1   
    49    18    54 1   
    50    19    20 1   
    51    19    55 1   
    52    19    56 1   
    53    20    21 1   
    54    20    57 1   
    55    21    22 1   
    56    21    23 1   
    57    22    58 1   
    58    22    59 1   
    59    22    60 1   
    60    23    24 1   
    61    23    61 1   
    62    23    62 1   
    63    24    25 1   
    64    24    63 1   
    65    24    64 1   
    66    25    26 1   
    67    25    65 1   
    68    25    66 1   
    69    26    27 1   
    70    26    73 1   
    71    27    67 1   
    72    27    68 1   
    73    27    69 1   
    74    28    73 2   
    75    29    73 1   
    76    31    70 1   
    77    32    71 1   
    78    33    72 1   
@<TRIPOS>SUBSTRUCTURE
     1 JDF         1 TEMP              0 ****  ****    0 ROOT
