@<TRIPOS>MOLECULE
JDG
   87    91     1     0     0
SMALL
No Charge or Current Charge


@<TRIPOS>ATOM
      1 C10          9.1840    -0.0600    -1.6590 c5         1 JDG       0.156300
      2 C13          8.2680    -2.1660    -1.8810 c5         1 JDG       0.156300
      3 C15          0.3640     0.4170     1.0060 ca         1 JDG       0.173400
      4 C17         -1.8520    -0.2790     2.0360 ce         1 JDG       0.698800
      5 C20         -3.9230    -0.3090    -0.3780 c6         1 JDG      -0.089400
      6 C21         -5.3000     0.0550    -0.9730 c6         1 JDG       0.169300
      7 C24         -7.4150    -0.2920    -3.0670 c3         1 JDG      -0.091100
      8 C26         -6.4000    -1.6240     0.4510 c6         1 JDG       0.169300
      9 C01          1.3240    -4.3780     2.6300 c3         1 JDG       0.144900
     10 C03          1.4680    -2.1090     1.6440 ca         1 JDG       0.102100
     11 C04          2.2520    -1.1420     0.9760 ca         1 JDG       0.144100
     12 C06          4.4320    -0.5400    -0.0290 c3         1 JDG       0.160600
     13 C07          5.7900    -1.2380    -0.2180 c3         1 JDG      -0.084400
     14 C08          6.8140    -0.3430    -0.9450 c3         1 JDG       0.172800
     15 C11         10.4190    -0.9970    -1.6830 c5         1 JDG      -0.078900
     16 C12          9.8010    -2.4160    -1.8950 c5         1 JDG      -0.078900
     17 C14          1.6890     0.1130     0.6610 ca         1 JDG      -0.173000
     18 C16         -0.4360    -0.5530     1.6550 ca         1 JDG      -0.220900
     19 C19         -4.0790    -0.8200     1.0660 c6         1 JDG       0.240500
     20 C25         -8.5400    -2.0130    -1.6110 c3         1 JDG      -0.091100
     21 C27         -5.0440    -2.0180     1.0800 c6         1 JDG      -0.089400
     22 C29         -1.3330     1.9610     2.7660 c3         1 JDG       0.038500
     23 C30         -0.8950     2.4280     1.3710 c2         1 JDG       0.450300
     24 C31         -1.4730     3.7650     0.8890 c6         1 JDG      -0.101000
     25 C32         -2.8060     3.5520     0.1170 c6         1 JDG      -0.066900
     26 C33         -3.4200     4.8990    -0.3390 c6         1 JDG      -0.074900
     27 C34         -2.4160     5.7140    -1.1910 c6         1 JDG      -0.075400
     28 C35         -1.0830     5.9290    -0.4330 c6         1 JDG      -0.074900
     29 C36         -0.4700     4.5800     0.0180 c6         1 JDG      -0.066900
     30 C38          0.1290    -1.8080     1.9790 ca         1 JDG      -0.149000
     31 N09          8.1630    -0.9400    -1.0580 n3         1 JDG      -0.714600
     32 N22         -6.2540    -1.1010    -0.9460 n3         1 JDG      -0.720600
     33 N28         -2.2280     0.7900     2.6520 n2         1 JDG      -0.692900
     34 N37         -0.1240     1.6820     0.6250 ne         1 JDG      -0.592100
     35 O02          2.0430    -3.3330     1.9520 os         1 JDG      -0.319100
     36 O05          3.5610    -1.4590     0.6500 os         1 JDG      -0.326100
     37 H1           9.3650     0.8460    -1.0630 h1         1 JDG       0.035200
     38 H2           8.8990     0.2490    -2.6750 h1         1 JDG       0.035200
     39 H3           7.8880    -1.9940    -2.8980 h1         1 JDG       0.035200
     40 H4           7.7220    -3.0170    -1.4510 h1         1 JDG       0.035200
     41 H5          -3.4450    -1.0740    -1.0050 hc         1 JDG       0.052700
     42 H6          -3.2680     0.5710    -0.4010 hc         1 JDG       0.052700
     43 H7          -5.7190     0.9070    -0.4170 h1         1 JDG       0.032200
     44 H8          -5.1200     0.3960    -2.0010 h1         1 JDG       0.032200
     45 H9          -6.8030    -0.9820    -3.6600 hc         1 JDG       0.037200
     46 H10         -8.3930    -0.2000    -3.5530 hc         1 JDG       0.037200
     47 H11         -6.9560     0.7020    -3.0990 hc         1 JDG       0.037200
     48 H12         -7.0310    -2.5230     0.4730 h1         1 JDG       0.032200
     49 H13         -6.8860    -0.8710     1.0890 h1         1 JDG       0.032200
     50 H14          1.9700    -5.2540     2.7690 h1         1 JDG       0.040700
     51 H15          0.9900    -4.0430     3.6200 h1         1 JDG       0.040700
     52 H16          0.4480    -4.6910     2.0480 h1         1 JDG       0.040700
     53 H17          4.5690     0.3750     0.5630 h1         1 JDG       0.035200
     54 H18          4.0210    -0.2690    -1.0100 h1         1 JDG       0.035200
     55 H19          6.1910    -1.5170     0.7640 hc         1 JDG       0.064700
     56 H20          5.6370    -2.1620    -0.7860 hc         1 JDG       0.064700
     57 H21          6.4270    -0.1030    -1.9450 h1         1 JDG       0.028700
     58 H22          6.8890     0.6040    -0.3930 h1         1 JDG       0.028700
     59 H23         11.1240    -0.7220    -2.4750 hc         1 JDG       0.046950
     60 H24         10.9630    -0.9490    -0.7330 hc         1 JDG       0.046950
     61 H25         10.0960    -3.0930    -1.0850 hc         1 JDG       0.046950
     62 H26         10.1240    -2.8760    -2.8350 hc         1 JDG       0.046950
     63 H27          2.2700     0.8700     0.1450 ha         1 JDG       0.136000
     64 H28         -4.5210    -0.0180     1.6780 h1         1 JDG       0.063700
     65 H29         -8.0660    -0.0020    -1.0480 h1         1 JDG       0.018700
     66 H30         -8.0580    -2.9000    -2.0380 hc         1 JDG       0.037200
     67 H31         -8.8870    -2.2510    -0.6000 hc         1 JDG       0.037200
     68 H32         -9.4350    -1.7930    -2.2050 hc         1 JDG       0.037200
     69 H33         -5.2010    -2.3620     2.1100 hc         1 JDG       0.052700
     70 H34         -4.6140    -2.8620     0.5230 hc         1 JDG       0.052700
     71 H35         -0.4410     1.7180     3.3600 h1         1 JDG       0.059700
     72 H36         -1.8460     2.7780     3.2910 h1         1 JDG       0.059700
     73 H38         -1.6910     4.3760     1.7760 hc         1 JDG       0.055700
     74 H39         -2.6290     2.9160    -0.7610 hc         1 JDG       0.051450
     75 H40         -3.5270     3.0160     0.7500 hc         1 JDG       0.051450
     76 H41         -4.3350     4.7150    -0.9170 hc         1 JDG       0.037700
     77 H42         -3.7200     5.4860     0.5410 hc         1 JDG       0.037700
     78 H43         -2.2220     5.1880    -2.1370 hc         1 JDG       0.038200
     79 H44         -2.8550     6.6850    -1.4580 hc         1 JDG       0.038200
     80 H45         -0.3710     6.4650    -1.0760 hc         1 JDG       0.037700
     81 H46         -1.2550     6.5700     0.4440 hc         1 JDG       0.037700
     82 H47          0.4540     4.7640     0.5840 hc         1 JDG       0.051450
     83 H48         -0.1810     4.0000    -0.8700 hc         1 JDG       0.051450
     84 H49         -0.4850    -2.5360     2.5040 ha         1 JDG       0.127000
     85 H37         -2.3140    -2.0010     1.1470 hn         1 JDG       0.488000
     86 N18         -2.7710    -1.2190     1.6040 nu         1 JDG      -0.905400
     87 C23         -7.5670    -0.8040    -1.6100 c3         1 JDG       0.187500
@<TRIPOS>BOND
     1     1    15 1   
     2     1    31 1   
     3     1    37 1   
     4     1    38 1   
     5     2    16 1   
     6     2    31 1   
     7     2    39 1   
     8     2    40 1   
     9     3    17 ar  
    10     3    18 ar  
    11     3    34 1   
    12     4    18 1   
    13     4    33 2   
    14     4    86 1   
    15     5     6 1   
    16     5    19 1   
    17     5    41 1   
    18     5    42 1   
    19     6    32 1   
    20     6    43 1   
    21     6    44 1   
    22     7    45 1   
    23     7    46 1   
    24     7    47 1   
    25     7    87 1   
    26     8    21 1   
    27     8    32 1   
    28     8    48 1   
    29     8    49 1   
    30     9    35 1   
    31     9    50 1   
    32     9    51 1   
    33     9    52 1   
    34    10    11 ar  
    35    10    30 ar  
    36    10    35 1   
    37    11    17 ar  
    38    11    36 1   
    39    12    13 1   
    40    12    36 1   
    41    12    53 1   
    42    12    54 1   
    43    13    14 1   
    44    13    55 1   
    45    13    56 1   
    46    14    31 1   
    47    14    57 1   
    48    14    58 1   
    49    15    16 1   
    50    15    59 1   
    51    15    60 1   
    52    16    61 1   
    53    16    62 1   
    54    17    63 1   
    55    18    30 ar  
    56    19    21 1   
    57    19    64 1   
    58    19    86 1   
    59    20    66 1   
    60    20    67 1   
    61    20    68 1   
    62    20    87 1   
    63    21    69 1   
    64    21    70 1   
    65    22    23 1   
    66    22    33 1   
    67    22    71 1   
    68    22    72 1   
    69    23    24 1   
    70    23    34 2   
    71    24    25 1   
    72    24    29 1   
    73    24    73 1   
    74    25    26 1   
    75    25    74 1   
    76    25    75 1   
    77    26    27 1   
    78    26    76 1   
    79    26    77 1   
    80    27    28 1   
    81    27    78 1   
    82    27    79 1   
    83    28    29 1   
    84    28    80 1   
    85    28    81 1   
    86    29    82 1   
    87    29    83 1   
    88    30    84 1   
    89    32    87 1   
    90    65    87 1   
    91    85    86 1   
@<TRIPOS>SUBSTRUCTURE
     1 JDG         1 TEMP              0 ****  ****    0 ROOT
