@<TRIPOS>MOLECULE
JDG
   87    91     1     0     0
SMALL
bcc


@<TRIPOS>ATOM
      1 C10          9.4690    -0.0800     0.0110 c5         1 JDG       0.156300
      2 C13          8.6720    -2.0040    -0.9590 c5         1 JDG       0.156300
      3 C15          0.5360     0.6860     0.1060 ca         1 JDG       0.173400
      4 C17         -1.8790     0.0320     0.3290 ce         1 JDG       0.698800
      5 C20         -4.7810    -1.2950    -1.5440 c6         1 JDG      -0.089400
      6 C21         -6.2960    -1.1570    -1.5260 c6         1 JDG       0.169300
      7 C24         -8.9480    -2.1990    -1.6110 c3         1 JDG      -0.091100
      8 C26         -6.3220    -1.0400     0.8500 c6         1 JDG       0.169300
      9 C01          0.7780    -4.3400     0.1910 c3         1 JDG       0.121700
     10 C03          1.2690    -2.0260     0.1130 ca         1 JDG       0.102100
     11 C04          2.2600    -1.0220     0.0070 ca         1 JDG       0.144100
     12 C06          4.5820    -0.5200    -0.1040 c3         1 JDG       0.137400
     13 C07          5.8890    -1.2830    -0.0420 c3         1 JDG      -0.084400
     14 C08          7.0750    -0.3350    -0.1620 c3         1 JDG       0.172800
     15 C11         10.6930    -0.9940    -0.0730 c5         1 JDG      -0.078900
     16 C12         10.1510    -2.2950    -0.7030 c5         1 JDG      -0.078900
     17 C14          1.8810     0.3020    -0.0240 ca         1 JDG      -0.191000
     18 C16         -0.4430    -0.3040     0.2210 ca         1 JDG      -0.220900
     19 C19         -4.1580    -0.6180    -0.3360 c6         1 JDG       0.240500
     20 C25         -8.9170    -2.4900     0.8460 c3         1 JDG      -0.091100
     21 C27         -4.8100    -1.1790     0.9200 c6         1 JDG      -0.089400
     22 C29         -1.4040     1.8080     1.7480 c3         1 JDG       0.038500
     23 C30         -0.5960     2.6050     0.7550 c2         1 JDG       0.450300
     24 C31         -0.8840     4.0710     0.6270 c6         1 JDG      -0.101000
     25 C32         -2.3440     4.3050     0.2050 c6         1 JDG      -0.066900
     26 C33         -2.6680     5.7950     0.1740 c6         1 JDG      -0.074900
     27 C34         -1.7110     6.5580    -0.7350 c6         1 JDG      -0.075400
     28 C35         -0.2590     6.3070    -0.3400 c6         1 JDG      -0.074900
     29 C36          0.0640     4.8160    -0.3060 c6         1 JDG      -0.066900
     30 C38         -0.0540    -1.6550     0.2000 ca         1 JDG      -0.167000
     31 N09          8.3430    -0.9980     0.0370 n3         1 JDG      -0.714600
     32 N22         -6.8810    -1.7120    -0.3150 n3         1 JDG      -0.720600
     33 N28         -2.3530     1.0040     1.0200 n2         1 JDG      -0.692900
     34 N37          0.2850     2.0520     0.0210 ne         1 JDG      -0.592100
     35 O02          1.7240    -3.2920     0.1240 os         1 JDG      -0.295900
     36 O05          3.5240    -1.4660    -0.0580 os         1 JDG      -0.302900
     37 H1           9.4690     0.5620     0.8940 h1         1 JDG       0.035200
     38 H2           9.4280     0.5790    -0.8720 h1         1 JDG       0.035200
     39 H3           8.5260    -1.6210    -1.9840 h1         1 JDG       0.035200
     40 H4           8.0440    -2.8910    -0.8570 h1         1 JDG       0.035200
     41 H5          -4.5150    -2.3580    -1.5500 hc         1 JDG       0.052700
     42 H6          -4.3970    -0.8580    -2.4700 hc         1 JDG       0.052700
     43 H7          -6.5620    -0.0910    -1.6520 h1         1 JDG       0.032200
     44 H8          -6.6860    -1.6800    -2.3970 h1         1 JDG       0.032200
     45 H9          -8.5450    -3.1840    -1.8540 hc         1 JDG       0.037200
     46 H10        -10.0280    -2.2980    -1.4970 hc         1 JDG       0.037200
     47 H11         -8.7780    -1.5400    -2.4610 hc         1 JDG       0.037200
     48 H12         -6.7470    -1.4620     1.7590 h1         1 JDG       0.032200
     49 H13         -6.5880     0.0330     0.8520 h1         1 JDG       0.032200
     50 H14          1.3440    -5.2680     0.1670 h1         1 JDG       0.040700
     51 H15          0.1960    -4.3080     1.1160 h1         1 JDG       0.040700
     52 H16          0.0910    -4.3250    -0.6600 h1         1 JDG       0.040700
     53 H17          4.5060     0.1760     0.7390 h1         1 JDG       0.035200
     54 H18          4.5250     0.0690    -1.0270 h1         1 JDG       0.035200
     55 H19          5.9550    -1.8280     0.9030 hc         1 JDG       0.064700
     56 H20          5.9100    -2.0210    -0.8480 hc         1 JDG       0.064700
     57 H21          7.0390     0.1740    -1.1430 h1         1 JDG       0.028700
     58 H22          6.9840     0.4500     0.5950 h1         1 JDG       0.028700
     59 H23         11.4840    -0.5400    -0.6690 hc         1 JDG       0.046950
     60 H24         11.1070    -1.1860     0.9170 hc         1 JDG       0.046950
     61 H25         10.2620    -3.1320    -0.0130 hc         1 JDG       0.046950
     62 H26         10.6670    -2.5660    -1.6240 hc         1 JDG       0.046950
     63 H27          2.6110     1.0920    -0.1370 ha         1 JDG       0.154000
     64 H28         -4.3790     0.4550    -0.3870 h1         1 JDG       0.063700
     65 H29         -8.6890    -0.6250    -0.1880 h1         1 JDG       0.018700
     66 H30         -8.6180    -3.5360     0.7540 hc         1 JDG       0.037200
     67 H31         -8.6070    -2.1360     1.8270 hc         1 JDG       0.037200
     68 H32        -10.0060    -2.4500     0.8240 hc         1 JDG       0.037200
     69 H33         -4.4390    -0.6590     1.8060 hc         1 JDG       0.052700
     70 H34         -4.5420    -2.2350     1.0240 hc         1 JDG       0.052700
     71 H35         -0.7170     1.2120     2.3670 h1         1 JDG       0.059700
     72 H36         -1.9420     2.4750     2.4220 h1         1 JDG       0.059700
     73 H38         -0.7740     4.4860     1.6400 hc         1 JDG       0.055700
     74 H39         -2.5010     3.8720    -0.7890 hc         1 JDG       0.051450
     75 H40         -3.0290     3.7860     0.8790 hc         1 JDG       0.051450
     76 H41         -3.7000     5.9420    -0.1510 hc         1 JDG       0.037700
     77 H42         -2.6030     6.1960     1.1920 hc         1 JDG       0.037700
     78 H43         -1.8630     6.2350    -1.7700 hc         1 JDG       0.038200
     79 H44         -1.9330     7.6280    -0.7080 hc         1 JDG       0.038200
     80 H45          0.4140     6.8150    -1.0340 hc         1 JDG       0.037700
     81 H46         -0.0700     6.7430     0.6480 hc         1 JDG       0.037700
     82 H47          1.0990     4.6600     0.0050 hc         1 JDG       0.051450
     83 H48         -0.0210     4.4010    -1.3150 hc         1 JDG       0.051450
     84 H49         -0.8230    -2.4100     0.2950 ha         1 JDG       0.145000
     85 H37         -2.3300    -1.3460    -1.0880 hn         1 JDG       0.432800
     86 N18         -2.7230    -0.8000    -0.3390 nu         1 JDG      -0.850200
     87 C23         -8.3470    -1.6690    -0.3100 c3         1 JDG       0.187500
@<TRIPOS>BOND
     1     1    15 1   
     2     1    31 1   
     3     1    37 1   
     4     1    38 1   
     5     2    16 1   
     6     2    31 1   
     7     2    39 1   
     8     2    40 1   
     9     3    17 ar  
    10     3    18 ar  
    11     3    34 1   
    12     4    18 1   
    13     4    33 2   
    14     4    86 1   
    15     5     6 1   
    16     5    19 1   
    17     5    41 1   
    18     5    42 1   
    19     6    32 1   
    20     6    43 1   
    21     6    44 1   
    22     7    45 1   
    23     7    46 1   
    24     7    47 1   
    25     7    87 1   
    26     8    21 1   
    27     8    32 1   
    28     8    48 1   
    29     8    49 1   
    30     9    35 1   
    31     9    50 1   
    32     9    51 1   
    33     9    52 1   
    34    10    11 ar  
    35    10    30 ar  
    36    10    35 1   
    37    11    17 ar  
    38    11    36 1   
    39    12    13 1   
    40    12    36 1   
    41    12    53 1   
    42    12    54 1   
    43    13    14 1   
    44    13    55 1   
    45    13    56 1   
    46    14    31 1   
    47    14    57 1   
    48    14    58 1   
    49    15    16 1   
    50    15    59 1   
    51    15    60 1   
    52    16    61 1   
    53    16    62 1   
    54    17    63 1   
    55    18    30 ar  
    56    19    21 1   
    57    19    64 1   
    58    19    86 1   
    59    20    66 1   
    60    20    67 1   
    61    20    68 1   
    62    20    87 1   
    63    21    69 1   
    64    21    70 1   
    65    22    23 1   
    66    22    33 1   
    67    22    71 1   
    68    22    72 1   
    69    23    24 1   
    70    23    34 2   
    71    24    25 1   
    72    24    29 1   
    73    24    73 1   
    74    25    26 1   
    75    25    74 1   
    76    25    75 1   
    77    26    27 1   
    78    26    76 1   
    79    26    77 1   
    80    27    28 1   
    81    27    78 1   
    82    27    79 1   
    83    28    29 1   
    84    28    80 1   
    85    28    81 1   
    86    29    82 1   
    87    29    83 1   
    88    30    84 1   
    89    32    87 1   
    90    65    87 1   
    91    85    86 1   
@<TRIPOS>SUBSTRUCTURE
     1 JDG         1 TEMP              0 ****  ****    0 ROOT
