@<TRIPOS>MOLECULE
JDH
   59    63     1     0     0
SMALL
No Charge or Current Charge


@<TRIPOS>ATOM
      1 C10          3.9610     2.8550     0.9760 ca         1 JDH      -0.067000
      2 C13          1.2030     4.1390    -1.1240 cc         1 JDH      -0.150100
      3 C15          0.2960     1.9480    -2.1530 c3         1 JDH       0.126900
      4 C17         -1.3320     1.6370    -0.2010 ca         1 JDH      -0.092500
      5 C20         -3.6470    -1.2490     0.8310 c3         1 JDH       0.213100
      6 C22         -5.9800    -1.4460     1.6430 c6         1 JDH       0.129800
      7 C26         -7.0170    -0.0850    -0.7080 c6         1 JDH       0.163800
      8 C28         -2.0270    -0.9260    -1.1120 ca         1 JDH      -0.101500
      9 C02          5.2510    -2.8140     0.8260 cc         1 JDH       0.292000
     10 N03          3.8860    -3.0460     0.7860 na         1 JDH      -0.044200
     11 N04          3.1400    -1.8900     0.6230 nc         1 JDH      -0.526800
     12 C05          4.0730    -0.9470     0.5840 cd         1 JDH       0.397500
     13 C06          3.6910     0.4710     0.3980 ca         1 JDH      -0.124500
     14 C07          2.5920     0.8030    -0.4380 ca         1 JDH      -0.092000
     15 C08          2.2290     2.1530    -0.5640 ca         1 JDH      -0.055200
     16 C09          2.8930     3.1320     0.1180 ca         1 JDH      -0.082800
     17 C11          4.3520     1.5060     1.1180 ca         1 JDH      -0.114000
     18 C12          2.2460     4.3690    -0.2370 cd         1 JDH      -0.243200
     19 N14          1.2150     2.7410    -1.3150 na         1 JDH      -0.086700
     20 C16         -0.7280     1.1270    -1.3690 ca         1 JDH      -0.121300
     21 C18         -2.2730     0.8680     0.5070 ca         1 JDH      -0.101500
     22 C19         -2.6250    -0.4180     0.0570 ca         1 JDH      -0.074300
     23 N21         -5.0290    -0.7160     0.7490 n3         1 JDH      -0.721600
     24 C23         -7.4310    -0.8650     1.5690 c6         1 JDH       0.163800
     25 N24         -7.9710    -0.8320     0.1720 n3         1 JDH      -0.714600
     26 C25         -8.3250    -2.1730    -0.3520 c3         1 JDH       0.152100
     27 C27         -5.5620    -0.6590    -0.6500 c6         1 JDH       0.129800
     28 C29         -1.0870    -0.1580    -1.8200 ca         1 JDH      -0.092500
     29 C30          5.3890    -1.4690     0.6900 cd         1 JDH      -0.226000
     30 C31          6.6140    -0.7660     0.6320 ch         1 JDH       0.375000
     31 N32          7.6380    -0.2080     0.5880 n1         1 JDH      -0.489000
     32 H1           4.4650     3.6480     1.5220 ha         1 JDH       0.118000
     33 H2           0.4940     4.8070    -1.6040 h4         1 JDH       0.210000
     34 H3          -0.2400     2.6330    -2.8210 h1         1 JDH       0.063200
     35 H4           0.8980     1.2830    -2.7850 h1         1 JDH       0.063200
     36 H5          -1.0780     2.6300     0.1620 ha         1 JDH       0.115500
     37 H6          -3.6230    -2.2840     0.4620 h1         1 JDH       0.039700
     38 H7          -3.3270    -1.2810     1.8810 h1         1 JDH       0.039700
     39 H8          -6.0080    -2.5120     1.3750 h1         1 JDH       0.036200
     40 H9          -5.6350    -1.3900     2.6860 h1         1 JDH       0.036200
     41 H10         -7.3650    -0.0920    -1.7520 h1         1 JDH       0.058200
     42 H11         -6.9780     0.9700    -0.4000 h1         1 JDH       0.058200
     43 H12         -2.2920    -1.9170    -1.4740 ha         1 JDH       0.122000
     44 H13          5.8960    -4.7910     0.8980 hn         1 JDH       0.479000
     45 H14          7.1680    -3.6040     0.8540 hn         1 JDH       0.479000
     46 H15          3.4450    -3.9570     0.8590 hn         1 JDH       0.373000
     47 H16          2.0490     0.0310    -0.9760 ha         1 JDH       0.123000
     48 H17          5.1610     1.2690     1.8040 ha         1 JDH       0.120000
     49 H18          2.5290     5.3510     0.1380 ha         1 JDH       0.206000
     50 H19         -2.7340     1.2730     1.4050 ha         1 JDH       0.122000
     51 H21         -8.0890    -1.4540     2.2250 h1         1 JDH       0.058200
     52 H22         -7.4110     0.1550     1.9810 h1         1 JDH       0.058200
     53 H24         -7.4450    -2.8270    -0.4170 h1         1 JDH       0.029367
     54 H25         -9.0640    -2.6580     0.3000 h1         1 JDH       0.029367
     55 H26         -8.7630    -2.0910    -1.3550 h1         1 JDH       0.029367
     56 H27         -5.5550    -1.6640    -1.0990 h1         1 JDH       0.036200
     57 H28         -4.9200    -0.0270    -1.2800 h1         1 JDH       0.036200
     58 H29         -0.6350    -0.5660    -2.7220 ha         1 JDH       0.115500
     59 N01          6.1750    -3.8110     0.9610 nv         1 JDH      -1.075000
@<TRIPOS>BOND
     1     1    16 ar  
     2     1    17 ar  
     3     1    32 1   
     4     2    18 2   
     5     2    19 1   
     6     2    33 1   
     7     3    19 1   
     8     3    20 1   
     9     3    34 1   
    10     3    35 1   
    11     4    20 ar  
    12     4    21 ar  
    13     4    36 1   
    14     5    22 1   
    15     5    23 1   
    16     5    37 1   
    17     5    38 1   
    18     6    23 1   
    19     6    24 1   
    20     6    39 1   
    21     6    40 1   
    22     7    25 1   
    23     7    27 1   
    24     7    41 1   
    25     7    42 1   
    26     8    22 ar  
    27     8    28 ar  
    28     8    43 1   
    29     9    10 1   
    30     9    29 2   
    31     9    59 1   
    32    10    11 1   
    33    10    46 1   
    34    11    12 2   
    35    12    13 1   
    36    12    29 1   
    37    13    14 ar  
    38    13    17 ar  
    39    14    15 ar  
    40    14    47 1   
    41    15    16 ar  
    42    15    19 1   
    43    16    18 1   
    44    17    48 1   
    45    18    49 1   
    46    20    28 ar  
    47    21    22 ar  
    48    21    50 1   
    49    23    27 1   
    50    24    25 1   
    51    24    51 1   
    52    24    52 1   
    53    25    26 1   
    54    26    53 1   
    55    26    54 1   
    56    26    55 1   
    57    27    56 1   
    58    27    57 1   
    59    28    58 1   
    60    29    30 1   
    61    30    31 3   
    62    44    59 1   
    63    45    59 1   
@<TRIPOS>SUBSTRUCTURE
     1 JDH         1 TEMP              0 ****  ****    0 ROOT
