@<TRIPOS>MOLECULE
JDH
   59    63     1     0     0
SMALL
bcc


@<TRIPOS>ATOM
      1 C10          4.0510     2.3920     1.3120 ca         1 JDH      -0.085000
      2 C13          1.0510     3.5760    -0.3370 cc         1 JDH      -0.100100
      3 C15          0.2970     1.6490    -1.7380 c3         1 JDH       0.097600
      4 C17         -2.1070     1.7470    -1.0070 ca         1 JDH      -0.110500
      5 C20         -4.2370    -0.4200     1.2740 c3         1 JDH       0.213100
      6 C22         -6.6260    -0.3710     1.5390 c6         1 JDH       0.129800
      7 C26         -6.9920    -0.8980    -1.2170 c6         1 JDH       0.163800
      8 C28         -1.8660    -0.5940     0.4360 ca         1 JDH      -0.119500
      9 C02          6.1210    -2.8180    -0.1510 cc         1 JDH       0.204300
     10 N03          4.8540    -3.1690    -0.3860 na         1 JDH      -0.044600
     11 N04          3.9790    -2.1510    -0.2670 nc         1 JDH      -0.526800
     12 C05          4.6940    -1.1010     0.0500 cd         1 JDH       0.462800
     13 C06          4.0730     0.2130     0.2300 ca         1 JDH      -0.124500
     14 C07          2.9170     0.5170    -0.4750 ca         1 JDH      -0.110000
     15 C08          2.3380     1.7660    -0.2780 ca         1 JDH      -0.055200
     16 C09          2.8880     2.7200     0.6090 ca         1 JDH      -0.082800
     17 C11          4.6280     1.1550     1.1210 ca         1 JDH      -0.132000
     18 C12          2.0440     3.8690     0.5520 cd         1 JDH      -0.193200
     19 N14          1.2260     2.3200    -0.8510 na         1 JDH      -0.057400
     20 C16         -0.8860     1.0790    -1.0010 ca         1 JDH      -0.121300
     21 C18         -3.1910     1.2560    -0.2940 ca         1 JDH      -0.119500
     22 C19         -3.0820     0.0820     0.4450 ca         1 JDH      -0.074300
     23 N21         -5.5110    -0.2570     0.6150 n3         1 JDH      -0.721600
     24 C23         -7.9350    -0.0960     0.8090 c6         1 JDH       0.163800
     25 N24         -8.1520    -0.9530    -0.3440 n3         1 JDH      -0.714600
     26 C25         -8.5500    -2.3010     0.0070 c3         1 JDH       0.152100
     27 C27         -5.6750    -1.1730    -0.5010 c6         1 JDH       0.129800
     28 C29         -0.7800    -0.1030    -0.2750 ca         1 JDH      -0.110500
     29 C30          6.0740    -1.4500     0.1430 cd         1 JDH      -0.291300
     30 C31          7.1930    -0.6430     0.3860 ch         1 JDH       0.285800
     31 N32          8.1320     0.0040     0.5810 n1         1 JDH      -0.399800
     32 H1           4.4950     3.0960     2.0060 ha         1 JDH       0.136000
     33 H2           0.2180     4.1820    -0.6590 h4         1 JDH       0.160000
     34 H3          -0.0330     2.3650    -2.4920 h1         1 JDH       0.063200
     35 H4           0.8420     0.8690    -2.2710 h1         1 JDH       0.063200
     36 H5          -2.2140     2.6620    -1.5790 ha         1 JDH       0.133500
     37 H6          -4.0460    -1.4660     1.5700 h1         1 JDH       0.039700
     38 H7          -4.2660     0.1560     2.2050 h1         1 JDH       0.039700
     39 H8          -6.6570    -1.3640     2.0220 h1         1 JDH       0.036200
     40 H9          -6.5020     0.3640     2.3380 h1         1 JDH       0.036200
     41 H10         -7.1220    -1.6080    -2.0360 h1         1 JDH       0.058200
     42 H11         -6.9410     0.1020    -1.6610 h1         1 JDH       0.058200
     43 H12         -1.7650    -1.5200     0.9900 ha         1 JDH       0.140000
     44 H13          7.0650    -4.5250    -0.6930 hn         1 JDH       0.423800
     45 H14          8.0820    -3.2720    -0.2180 hn         1 JDH       0.423800
     46 H15          4.5150    -4.0920    -0.6100 hn         1 JDH       0.322700
     47 H16          2.4940    -0.2000    -1.1680 ha         1 JDH       0.141000
     48 H17          5.5140     0.9010     1.6870 ha         1 JDH       0.138000
     49 H18          2.1610     4.7940     1.0930 ha         1 JDH       0.156000
     50 H19         -4.1380     1.7810    -0.3200 ha         1 JDH       0.140000
     51 H21         -8.7740    -0.2000     1.5000 h1         1 JDH       0.058200
     52 H22         -7.9250     0.9440     0.4660 h1         1 JDH       0.058200
     53 H24         -7.8080    -2.8810     0.5720 h1         1 JDH       0.029367
     54 H25         -9.4600    -2.2670     0.6090 h1         1 JDH       0.029367
     55 H26         -8.7800    -2.8620    -0.9010 h1         1 JDH       0.029367
     56 H27         -5.6330    -2.2240    -0.1610 h1         1 JDH       0.036200
     57 H28         -4.8510    -1.0390    -1.2050 h1         1 JDH       0.036200
     58 H29          0.1520    -0.6570    -0.2630 ha         1 JDH       0.133500
     59 N01          7.1620    -3.6770    -0.1570 nv         1 JDH      -0.826200
@<TRIPOS>BOND
     1     1    16 ar  
     2     1    17 ar  
     3     1    32 1   
     4     2    18 2   
     5     2    19 1   
     6     2    33 1   
     7     3    19 1   
     8     3    20 1   
     9     3    34 1   
    10     3    35 1   
    11     4    20 ar  
    12     4    21 ar  
    13     4    36 1   
    14     5    22 1   
    15     5    23 1   
    16     5    37 1   
    17     5    38 1   
    18     6    23 1   
    19     6    24 1   
    20     6    39 1   
    21     6    40 1   
    22     7    25 1   
    23     7    27 1   
    24     7    41 1   
    25     7    42 1   
    26     8    22 ar  
    27     8    28 ar  
    28     8    43 1   
    29     9    10 1   
    30     9    29 2   
    31     9    59 1   
    32    10    11 1   
    33    10    46 1   
    34    11    12 2   
    35    12    13 1   
    36    12    29 1   
    37    13    14 ar  
    38    13    17 ar  
    39    14    15 ar  
    40    14    47 1   
    41    15    16 ar  
    42    15    19 1   
    43    16    18 1   
    44    17    48 1   
    45    18    49 1   
    46    20    28 ar  
    47    21    22 ar  
    48    21    50 1   
    49    23    27 1   
    50    24    25 1   
    51    24    51 1   
    52    24    52 1   
    53    25    26 1   
    54    26    53 1   
    55    26    54 1   
    56    26    55 1   
    57    27    56 1   
    58    27    57 1   
    59    28    58 1   
    60    29    30 1   
    61    30    31 3   
    62    44    59 1   
    63    45    59 1   
@<TRIPOS>SUBSTRUCTURE
     1 JDH         1 TEMP              0 ****  ****    0 ROOT
