@<TRIPOS>MOLECULE
JDJ
   93    93     1     0     0
SMALL
No Charge or Current Charge


@<TRIPOS>ATOM
      1 CAA         11.8160     3.6030     1.7390 c3         1 JDJ      -0.084767
      2 CBI         12.3250     2.2020     1.2860 c3         1 JDJ      -0.038000
      3 CAB         13.4580     2.3750     0.2420 c3         1 JDJ      -0.084767
      4 CAC         12.9520     1.5300     2.5430 c3         1 JDJ      -0.084767
      5 CAY         11.1500     1.2560     0.8050 c3         1 JDJ      -0.061400
      6 CBJ         10.3990     1.3750    -0.5870 c3         1 JDJ       0.022300
      7 CAD          9.9750     2.8470    -0.8560 c3         1 JDJ      -0.082600
      8 CAE         11.3130     0.8820    -1.7470 c3         1 JDJ      -0.082600
      9 CBH          9.1240     0.4610    -0.6210 ca         1 JDJ      -0.107300
     10 CAJ          8.2390     0.5270    -1.7290 ca         1 JDJ      -0.074500
     11 CAH          7.0900    -0.2790    -1.8080 ca         1 JDJ      -0.172500
     12 CAI          8.8150    -0.4890     0.3920 ca         1 JDJ      -0.074500
     13 CAG          7.6650    -1.2930     0.3100 ca         1 JDJ      -0.172500
     14 CBG          6.7940    -1.1920    -0.7800 ca         1 JDJ       0.142100
     15 OBF          5.6840    -2.0100    -0.8020 os         1 JDJ      -0.336100
     16 CAX          4.7280    -1.9790    -1.8820 c3         1 JDJ       0.164600
     17 CAW          3.6150    -3.0110    -1.5910 c3         1 JDJ       0.160600
     18 OBE          2.8030    -2.5290    -0.5020 os         1 JDJ      -0.436000
     19 CAV          1.7250    -3.4100    -0.1260 c3         1 JDJ       0.161600
     20 CAU          0.9330    -2.7690     1.0390 c3         1 JDJ       0.162600
     21 OBD          0.1770    -1.6500     0.5350 os         1 JDJ      -0.437000
     22 CAT         -0.5980    -0.9550     1.5320 c3         1 JDJ       0.162600
     23 CAS         -1.3630     0.2080     0.8580 c3         1 JDJ       0.161600
     24 OBC         -2.4290    -0.3330     0.0520 os         1 JDJ      -0.436000
     25 CAR         -3.2140     0.6570    -0.6420 c3         1 JDJ       0.161600
     26 CAQ         -4.3240    -0.0560    -1.4520 c3         1 JDJ       0.162600
     27 OBB         -5.3190    -0.5650    -0.5420 os         1 JDJ      -0.436000
     28 CAP         -6.4080    -1.2630    -1.1780 c3         1 JDJ       0.162600
     29 CAO         -7.4020    -1.7430    -0.0940 c3         1 JDJ       0.161600
     30 OBA         -8.1130    -0.6040     0.4300 os         1 JDJ      -0.435000
     31 CAN         -9.0690    -0.9190     1.4620 c3         1 JDJ       0.161600
     32 CAM         -9.7640     0.3840     1.9230 c3         1 JDJ       0.161600
     33 OAZ        -10.6600     0.8330     0.8870 os         1 JDJ      -0.435000
     34 CAL        -11.3630     2.0530     1.1930 c3         1 JDJ       0.162600
     35 CAK        -12.2910     2.4130     0.0080 c3         1 JDJ       0.162600
     36 OAF        -13.4010     1.4930    -0.0190 os         1 JDJ      -0.434000
     37 H1          10.9550     3.5120     2.4120 hc         1 JDJ       0.032256
     38 H2          12.6030     4.1440     2.2800 hc         1 JDJ       0.032256
     39 H3          11.5270     4.2400     0.8990 hc         1 JDJ       0.032256
     40 H4          14.3290     2.8690     0.6910 hc         1 JDJ       0.032256
     41 H5          13.7900     1.4050    -0.1460 hc         1 JDJ       0.032256
     42 H6          13.1380     3.0030    -0.5960 hc         1 JDJ       0.032256
     43 H7          12.2000     1.3870     3.3280 hc         1 JDJ       0.032256
     44 H8          13.3740     0.5470     2.2970 hc         1 JDJ       0.032256
     45 H9          13.7600     2.1410     2.9620 hc         1 JDJ       0.032256
     46 H10         11.5230     0.2250     0.8650 hc         1 JDJ       0.038700
     47 H11         10.3850     1.3360     1.5860 hc         1 JDJ       0.038700
     48 H12         10.8490     3.4860    -1.0090 hc         1 JDJ       0.034367
     49 H13          9.3750     2.9560    -1.7640 hc         1 JDJ       0.034367
     50 H14          9.3870     3.2430    -0.0190 hc         1 JDJ       0.034367
     51 H15         11.7170    -0.1120    -1.5210 hc         1 JDJ       0.034367
     52 H16         10.7610     0.8100    -2.6900 hc         1 JDJ       0.034367
     53 H17         12.1510     1.5570    -1.9360 hc         1 JDJ       0.034367
     54 H18          8.4370     1.1990    -2.5590 ha         1 JDJ       0.109500
     55 H19          6.4470    -0.1820    -2.6780 ha         1 JDJ       0.119000
     56 H20          9.4500    -0.6400     1.2590 ha         1 JDJ       0.109500
     57 H21          7.4500    -2.0070     1.1010 ha         1 JDJ       0.119000
     58 H22          4.2830    -0.9810    -1.9860 h1         1 JDJ       0.043200
     59 H23          5.2150    -2.2430    -2.8290 h1         1 JDJ       0.043200
     60 H24          3.0030    -3.1360    -2.4940 h1         1 JDJ       0.030700
     61 H25          4.0680    -3.9810    -1.3470 h1         1 JDJ       0.030700
     62 H26          1.0490    -3.5910    -0.9720 h1         1 JDJ       0.029200
     63 H27          2.1230    -4.3770     0.2070 h1         1 JDJ       0.029200
     64 H28          0.2580    -3.5220     1.4650 h1         1 JDJ       0.029200
     65 H29          1.6310    -2.4520     1.8260 h1         1 JDJ       0.029200
     66 H30         -1.3130    -1.6320     2.0190 h1         1 JDJ       0.028200
     67 H31          0.0620    -0.5430     2.3070 h1         1 JDJ       0.028200
     68 H32         -1.7730     0.8620     1.6390 h1         1 JDJ       0.028700
     69 H33         -0.6680     0.8000     0.2470 h1         1 JDJ       0.028700
     70 H34         -3.6710     1.3640     0.0630 h1         1 JDJ       0.028200
     71 H35         -2.5810     1.2260    -1.3340 h1         1 JDJ       0.028200
     72 H36         -4.7760     0.6670    -2.1430 h1         1 JDJ       0.027700
     73 H37         -3.8810    -0.8660    -2.0470 h1         1 JDJ       0.027700
     74 H38         -6.9290    -0.6140    -1.8940 h1         1 JDJ       0.027700
     75 H39         -6.0300    -2.1380    -1.7230 h1         1 JDJ       0.027700
     76 H40         -8.1060    -2.4530    -0.5490 h1         1 JDJ       0.027700
     77 H41         -6.8550    -2.2660     0.7010 h1         1 JDJ       0.027700
     78 H42         -9.8240    -1.6290     1.0970 h1         1 JDJ       0.027700
     79 H43         -8.5610    -1.3730     2.3230 h1         1 JDJ       0.027700
     80 H44        -10.3230     0.1800     2.8460 h1         1 JDJ       0.028200
     81 H45         -9.0050     1.1460     2.1460 h1         1 JDJ       0.028200
     82 H46        -11.9600     1.9460     2.1080 h1         1 JDJ       0.027700
     83 H47        -10.6500     2.8740     1.3450 h1         1 JDJ       0.027700
     84 H48        -12.6540     3.4410     0.1420 h1         1 JDJ       0.027200
     85 H49        -11.7220     2.3720    -0.9300 h1         1 JDJ       0.027200
     86 C1         -14.3360     1.7180    -1.0940 c3         1 JDJ       0.160600
     87 C2         -15.4810     0.6730    -1.0040 c3         1 JDJ       0.163600
     88 O1         -16.3100     0.8890     0.1550 oh         1 JDJ      -0.709000
     89 H50        -14.7580     2.7300    -1.0420 h1         1 JDJ       0.026200
     90 H51        -13.8330     1.6090    -2.0640 h1         1 JDJ       0.026200
     91 H52        -16.0890     0.7470    -1.9160 h1         1 JDJ       0.025200
     92 H53        -15.0440    -0.3340    -0.9820 h1         1 JDJ       0.025200
     93 H54        -16.9700     0.1570     0.1750 ho         1 JDJ       0.499000
@<TRIPOS>BOND
     1     1     2 1   
     2     1    37 1   
     3     1    38 1   
     4     1    39 1   
     5     2     3 1   
     6     2     4 1   
     7     2     5 1   
     8     3    40 1   
     9     3    41 1   
    10     3    42 1   
    11     4    43 1   
    12     4    44 1   
    13     4    45 1   
    14     5     6 1   
    15     5    46 1   
    16     5    47 1   
    17     6     7 1   
    18     6     8 1   
    19     6     9 1   
    20     7    48 1   
    21     7    49 1   
    22     7    50 1   
    23     8    51 1   
    24     8    52 1   
    25     8    53 1   
    26     9    10 ar  
    27     9    12 ar  
    28    10    11 ar  
    29    10    54 1   
    30    11    14 ar  
    31    11    55 1   
    32    12    13 ar  
    33    12    56 1   
    34    13    14 ar  
    35    13    57 1   
    36    14    15 1   
    37    15    16 1   
    38    16    17 1   
    39    16    58 1   
    40    16    59 1   
    41    17    18 1   
    42    17    60 1   
    43    17    61 1   
    44    18    19 1   
    45    19    20 1   
    46    19    62 1   
    47    19    63 1   
    48    20    21 1   
    49    20    64 1   
    50    20    65 1   
    51    21    22 1   
    52    22    23 1   
    53    22    66 1   
    54    22    67 1   
    55    23    24 1   
    56    23    68 1   
    57    23    69 1   
    58    24    25 1   
    59    25    26 1   
    60    25    70 1   
    61    25    71 1   
    62    26    27 1   
    63    26    72 1   
    64    26    73 1   
    65    27    28 1   
    66    28    29 1   
    67    28    74 1   
    68    28    75 1   
    69    29    30 1   
    70    29    76 1   
    71    29    77 1   
    72    30    31 1   
    73    31    32 1   
    74    31    78 1   
    75    31    79 1   
    76    32    33 1   
    77    32    80 1   
    78    32    81 1   
    79    33    34 1   
    80    34    35 1   
    81    34    82 1   
    82    34    83 1   
    83    35    36 1   
    84    35    84 1   
    85    35    85 1   
    86    36    86 1   
    87    86    87 1   
    88    86    89 1   
    89    86    90 1   
    90    87    88 1   
    91    87    91 1   
    92    87    92 1   
    93    88    93 1   
@<TRIPOS>SUBSTRUCTURE
     1 JDJ         1 TEMP              0 ****  ****    0 ROOT
