@<TRIPOS>MOLECULE
JDJ
   93    93     1     0     0
SMALL
bcc


@<TRIPOS>ATOM
      1 CAA         11.4680     3.6420     1.1940 c3         1 JDJ      -0.084767
      2 CBI         11.9130     2.1960     0.9490 c3         1 JDJ      -0.038000
      3 CAB         13.0370     2.1830    -0.0870 c3         1 JDJ      -0.084767
      4 CAC         12.4890     1.6710     2.2720 c3         1 JDJ      -0.084767
      5 CAY         10.7190     1.2630     0.6190 c3         1 JDJ      -0.061400
      6 CBJ         10.0140     1.2020    -0.7570 c3         1 JDJ       0.022300
      7 CAD          9.6780     2.5980    -1.2930 c3         1 JDJ      -0.082600
      8 CAE         10.8830     0.4550    -1.7830 c3         1 JDJ      -0.082600
      9 CBH          8.7140     0.3870    -0.6250 ca         1 JDJ      -0.107300
     10 CAJ          7.8270     0.3160    -1.7000 ca         1 JDJ      -0.092500
     11 CAH          6.6610    -0.4360    -1.6670 ca         1 JDJ      -0.190500
     12 CAI          8.3720    -0.3640     0.5010 ca         1 JDJ      -0.092500
     13 CAG          7.2130    -1.1240     0.5570 ca         1 JDJ      -0.190500
     14 CBG          6.3400    -1.1670    -0.5260 ca         1 JDJ       0.142100
     15 OBF          5.2360    -1.9290    -0.3880 os         1 JDJ      -0.312900
     16 CAX          4.3330    -2.0180    -1.4740 c3         1 JDJ       0.141400
     17 CAW          3.2120    -2.9460    -1.0910 c3         1 JDJ       0.137400
     18 OBE          2.4670    -2.3770    -0.0470 os         1 JDJ      -0.389600
     19 CAV          1.4070    -3.1950     0.3800 c3         1 JDJ       0.138400
     20 CAU          0.6430    -2.4960     1.4750 c3         1 JDJ       0.139400
     21 OBD          0.0150    -1.3520     0.9560 os         1 JDJ      -0.390600
     22 CAT         -0.7230    -0.6480     1.9210 c3         1 JDJ       0.139400
     23 CAS         -1.3940     0.5390     1.2800 c3         1 JDJ       0.138400
     24 OBC         -2.3460     0.0990     0.3450 os         1 JDJ      -0.389600
     25 CAR         -3.0300     1.1600    -0.2710 c3         1 JDJ       0.138400
     26 CAQ         -4.0020     0.6170    -1.2860 c3         1 JDJ       0.139400
     27 OBB         -4.9890    -0.1440    -0.6390 os         1 JDJ      -0.389600
     28 CAP         -5.9320    -0.6850    -1.5280 c3         1 JDJ       0.139400
     29 CAO         -6.9080    -1.5480    -0.7710 c3         1 JDJ       0.138400
     30 OBA         -7.6780    -0.7560     0.0960 os         1 JDJ      -0.388600
     31 CAN         -8.5970    -1.5120     0.8420 c3         1 JDJ       0.138400
     32 CAM         -9.4020    -0.6050     1.7370 c3         1 JDJ       0.138400
     33 OAZ        -10.1940     0.2540     0.9570 os         1 JDJ      -0.388600
     34 CAL        -11.0250     1.0780     1.7330 c3         1 JDJ       0.139400
     35 CAK        -11.8170     1.9940     0.8350 c3         1 JDJ       0.139400
     36 OAF        -12.6770     1.2390     0.0220 os         1 JDJ      -0.387600
     37 H1          10.6700     3.6880     1.9370 hc         1 JDJ       0.032256
     38 H2          12.3050     4.2340     1.5730 hc         1 JDJ       0.032256
     39 H3          11.1070     4.1350     0.2930 hc         1 JDJ       0.032256
     40 H4          13.8920     2.7520     0.2850 hc         1 JDJ       0.032256
     41 H5          13.3850     1.1700    -0.2970 hc         1 JDJ       0.032256
     42 H6          12.7380     2.6400    -1.0310 hc         1 JDJ       0.032256
     43 H7          11.7320     1.6620     3.0600 hc         1 JDJ       0.032256
     44 H8          12.8670     0.6520     2.1660 hc         1 JDJ       0.032256
     45 H9          13.3160     2.2980     2.6140 hc         1 JDJ       0.032256
     46 H10         11.0490     0.2410     0.8380 hc         1 JDJ       0.038700
     47 H11          9.9620     1.4940     1.3760 hc         1 JDJ       0.038700
     48 H12         10.5820     3.1700    -1.5010 hc         1 JDJ       0.034367
     49 H13          9.1270     2.5490    -2.2320 hc         1 JDJ       0.034367
     50 H14          9.0730     3.1660    -0.5850 hc         1 JDJ       0.034367
     51 H15         11.1630    -0.5310    -1.4070 hc         1 JDJ       0.034367
     52 H16         10.3420     0.3080    -2.7200 hc         1 JDJ       0.034367
     53 H17         11.7980     0.9930    -2.0220 hc         1 JDJ       0.034367
     54 H18          8.0400     0.8560    -2.6140 ha         1 JDJ       0.127500
     55 H19          6.0220    -0.4350    -2.5400 ha         1 JDJ       0.137000
     56 H20          9.0120    -0.3810     1.3710 ha         1 JDJ       0.127500
     57 H21          6.9840    -1.6930     1.4500 ha         1 JDJ       0.137000
     58 H22          3.9340    -1.0300    -1.7320 h1         1 JDJ       0.043200
     59 H23          4.8290    -2.4180    -2.3650 h1         1 JDJ       0.043200
     60 H24          2.5900    -3.1080    -1.9830 h1         1 JDJ       0.030700
     61 H25          3.6180    -3.9270    -0.8040 h1         1 JDJ       0.030700
     62 H26          0.7330    -3.4350    -0.4540 h1         1 JDJ       0.029200
     63 H27          1.7780    -4.1510     0.7760 h1         1 JDJ       0.029200
     64 H28         -0.0940    -3.2010     1.8850 h1         1 JDJ       0.029200
     65 H29          1.3250    -2.2370     2.2980 h1         1 JDJ       0.029200
     66 H30         -1.4780    -1.2950     2.3910 h1         1 JDJ       0.028200
     67 H31         -0.0740    -0.2800     2.7280 h1         1 JDJ       0.028200
     68 H32         -1.8640     1.1370     2.0730 h1         1 JDJ       0.028700
     69 H33         -0.6410     1.1830     0.8010 h1         1 JDJ       0.028700
     70 H34         -3.5630     1.7700     0.4730 h1         1 JDJ       0.028200
     71 H35         -2.3330     1.8320    -0.7910 h1         1 JDJ       0.028200
     72 H36         -4.4440     1.4670    -1.8240 h1         1 JDJ       0.027700
     73 H37         -3.4650     0.0130    -2.0320 h1         1 JDJ       0.027700
     74 H38         -6.4690     0.1100    -2.0670 h1         1 JDJ       0.027700
     75 H39         -5.4460    -1.3120    -2.2890 h1         1 JDJ       0.027700
     76 H40         -7.5440    -2.0680    -1.5010 h1         1 JDJ       0.027700
     77 H41         -6.3620    -2.3250    -0.2160 h1         1 JDJ       0.027700
     78 H42         -9.2710    -2.0780     0.1830 h1         1 JDJ       0.027700
     79 H43         -8.0820    -2.2470     1.4760 h1         1 JDJ       0.027700
     80 H44        -10.0240    -1.2370     2.3860 h1         1 JDJ       0.028200
     81 H45         -8.7320    -0.0340     2.3970 h1         1 JDJ       0.028200
     82 H46        -11.7070     0.4770     2.3520 h1         1 JDJ       0.027700
     83 H47        -10.4380     1.7020     2.4210 h1         1 JDJ       0.027700
     84 H48        -12.3800     2.6900     1.4730 h1         1 JDJ       0.027200
     85 H49        -11.1340     2.6040     0.2260 h1         1 JDJ       0.027200
     86 C1         -13.4540     2.0380    -0.8340 c3         1 JDJ       0.137400
     87 C2         -14.2990     1.1670    -1.7280 c3         1 JDJ       0.140400
     88 O1         -15.2410     0.4640    -0.9500 oh         1 JDJ      -0.586800
     89 H50        -14.0960     2.7220    -0.2580 h1         1 JDJ       0.026200
     90 H51        -12.8170     2.6650    -1.4730 h1         1 JDJ       0.026200
     91 H52        -14.7830     1.8250    -2.4610 h1         1 JDJ       0.025200
     92 H53        -13.6460     0.4880    -2.2910 h1         1 JDJ       0.025200
     93 H54        -15.7590    -0.0920    -1.5380 ho         1 JDJ       0.400000
@<TRIPOS>BOND
     1     1     2 1   
     2     1    37 1   
     3     1    38 1   
     4     1    39 1   
     5     2     3 1   
     6     2     4 1   
     7     2     5 1   
     8     3    40 1   
     9     3    41 1   
    10     3    42 1   
    11     4    43 1   
    12     4    44 1   
    13     4    45 1   
    14     5     6 1   
    15     5    46 1   
    16     5    47 1   
    17     6     7 1   
    18     6     8 1   
    19     6     9 1   
    20     7    48 1   
    21     7    49 1   
    22     7    50 1   
    23     8    51 1   
    24     8    52 1   
    25     8    53 1   
    26     9    10 ar  
    27     9    12 ar  
    28    10    11 ar  
    29    10    54 1   
    30    11    14 ar  
    31    11    55 1   
    32    12    13 ar  
    33    12    56 1   
    34    13    14 ar  
    35    13    57 1   
    36    14    15 1   
    37    15    16 1   
    38    16    17 1   
    39    16    58 1   
    40    16    59 1   
    41    17    18 1   
    42    17    60 1   
    43    17    61 1   
    44    18    19 1   
    45    19    20 1   
    46    19    62 1   
    47    19    63 1   
    48    20    21 1   
    49    20    64 1   
    50    20    65 1   
    51    21    22 1   
    52    22    23 1   
    53    22    66 1   
    54    22    67 1   
    55    23    24 1   
    56    23    68 1   
    57    23    69 1   
    58    24    25 1   
    59    25    26 1   
    60    25    70 1   
    61    25    71 1   
    62    26    27 1   
    63    26    72 1   
    64    26    73 1   
    65    27    28 1   
    66    28    29 1   
    67    28    74 1   
    68    28    75 1   
    69    29    30 1   
    70    29    76 1   
    71    29    77 1   
    72    30    31 1   
    73    31    32 1   
    74    31    78 1   
    75    31    79 1   
    76    32    33 1   
    77    32    80 1   
    78    32    81 1   
    79    33    34 1   
    80    34    35 1   
    81    34    82 1   
    82    34    83 1   
    83    35    36 1   
    84    35    84 1   
    85    35    85 1   
    86    36    86 1   
    87    86    87 1   
    88    86    89 1   
    89    86    90 1   
    90    87    88 1   
    91    87    91 1   
    92    87    92 1   
    93    88    93 1   
@<TRIPOS>SUBSTRUCTURE
     1 JDJ         1 TEMP              0 ****  ****    0 ROOT
