@<TRIPOS>MOLECULE
JDK
   56    60     1     0     0
SMALL
bcc


@<TRIPOS>ATOM
      1 C10          3.8920     2.5510     1.1790 ca         1 JDK      -0.089000
      2 C13          1.1750     3.8460    -0.8400 cc         1 JDK      -0.110100
      3 C15          0.3520     1.8500    -2.1090 c3         1 JDK       0.098600
      4 C17         -1.5650     1.5540    -0.4950 ca         1 JDK      -0.111000
      5 C20         -3.5620    -1.4600     0.6600 c3         1 JDK       0.213100
      6 C22         -5.8030    -1.6190     1.4830 c6         1 JDK       0.166300
      7 C24         -7.7660    -0.9590     0.0710 c6         1 JDK      -0.075400
      8 C26         -5.4140    -0.9550    -0.7890 c6         1 JDK       0.166300
      9 C28         -0.7110    -0.3790    -1.6130 ca         1 JDK      -0.111000
     10 C02          5.3490    -2.9780     0.8050 cc         1 JDK       0.117300
     11 N03          4.5000    -3.1250    -0.2280 na         1 JDK      -0.037600
     12 N04          3.8340    -2.0000    -0.5290 nc         1 JDK      -0.531800
     13 C05          4.2710    -1.1040     0.3370 cd         1 JDK       0.407800
     14 C06          3.7590     0.2700     0.3250 ca         1 JDK      -0.109500
     15 C07          2.7010     0.6170    -0.5060 ca         1 JDK      -0.108000
     16 C08          2.2520     1.9330    -0.4840 ca         1 JDK      -0.049200
     17 C09          2.8270     2.9170     0.3490 ca         1 JDK      -0.090800
     18 C11          4.3420     1.2480     1.1590 ca         1 JDK      -0.140000
     19 C12          2.1190     4.1320     0.1040 cd         1 JDK      -0.191200
     20 N14          1.2530     2.5290    -1.2050 na         1 JDK      -0.058400
     21 C16         -0.6580     0.9890    -1.3910 ca         1 JDK      -0.116300
     22 C18         -2.4970     0.7680     0.1590 ca         1 JDK      -0.117000
     23 C19         -2.5540    -0.6080    -0.0650 ca         1 JDK      -0.075300
     24 N21         -4.9050    -0.9280     0.5730 n3         1 JDK      -0.718600
     25 C23         -7.1880    -0.9890     1.4800 c6         1 JDK      -0.074900
     26 C25         -6.7800    -0.2920    -0.8790 c6         1 JDK      -0.074900
     27 C27         -1.6530    -1.1680    -0.9610 ca         1 JDK      -0.117000
     28 C29          5.2320    -1.6610     1.2090 cd         1 JDK      -0.361300
     29 H1           4.3610     3.2770     1.8300 ha         1 JDK       0.130000
     30 H2           0.4420     4.4920    -1.2980 h4         1 JDK       0.158000
     31 H3          -0.1510     2.6160    -2.7010 h1         1 JDK       0.062200
     32 H4           0.9320     1.2440    -2.8080 h1         1 JDK       0.062200
     33 H5          -1.5440     2.6220    -0.3060 ha         1 JDK       0.132000
     34 H6          -3.4960    -2.4970     0.2880 h1         1 JDK       0.038200
     35 H7          -3.2890    -1.5010     1.7200 h1         1 JDK       0.038200
     36 H8          -5.8930    -2.6900     1.2230 h1         1 JDK       0.030450
     37 H9          -5.3790    -1.5750     2.4890 h1         1 JDK       0.030450
     38 H10         -7.9570    -1.9830    -0.2660 hc         1 JDK       0.038200
     39 H11         -8.7270    -0.4390     0.0600 hc         1 JDK       0.038200
     40 H12         -4.7100    -0.4330    -1.4400 h1         1 JDK       0.030450
     41 H13         -5.4860    -1.9920    -1.1640 h1         1 JDK       0.030450
     42 H14         -0.0210    -0.8410    -2.3090 ha         1 JDK       0.132000
     43 H15          5.7870    -4.9170     1.1590 hn         1 JDK       0.392800
     44 H16          6.5470    -3.8360     2.1580 hn         1 JDK       0.392800
     45 H17          4.3410    -3.9590    -0.7700 hn         1 JDK       0.315700
     46 H18          2.2430    -0.1260    -1.1460 ha         1 JDK       0.147000
     47 H19          5.1720     0.9740     1.7970 ha         1 JDK       0.127000
     48 H20          2.2890     5.0940     0.5600 ha         1 JDK       0.154000
     49 H21         -3.2040     1.2260     0.8400 ha         1 JDK       0.137500
     50 H23         -7.8380    -1.5480     2.1560 hc         1 JDK       0.045700
     51 H24         -7.1170     0.0300     1.8710 hc         1 JDK       0.045700
     52 H25         -7.1370    -0.3430    -1.9100 hc         1 JDK       0.045700
     53 H26         -6.6790     0.7670    -0.6250 hc         1 JDK       0.045700
     54 H27         -1.6850    -2.2330    -1.1580 ha         1 JDK       0.137500
     55 H28          5.7570    -1.1910     2.0250 ha         1 JDK       0.163000
     56 N01          6.1740    -3.9880     1.2340 nv         1 JDK      -0.800200
@<TRIPOS>BOND
     1     1    17 ar  
     2     1    18 ar  
     3     1    29 1   
     4     2    19 2   
     5     2    20 1   
     6     2    30 1   
     7     3    20 1   
     8     3    21 1   
     9     3    31 1   
    10     3    32 1   
    11     4    21 ar  
    12     4    22 ar  
    13     4    33 1   
    14     5    23 1   
    15     5    24 1   
    16     5    34 1   
    17     5    35 1   
    18     6    24 1   
    19     6    25 1   
    20     6    36 1   
    21     6    37 1   
    22     7    25 1   
    23     7    26 1   
    24     7    38 1   
    25     7    39 1   
    26     8    24 1   
    27     8    26 1   
    28     8    40 1   
    29     8    41 1   
    30     9    21 ar  
    31     9    27 ar  
    32     9    42 1   
    33    10    11 1   
    34    10    28 2   
    35    10    56 1   
    36    11    12 1   
    37    11    45 1   
    38    12    13 2   
    39    13    14 1   
    40    13    28 1   
    41    14    15 ar  
    42    14    18 ar  
    43    15    16 ar  
    44    15    46 1   
    45    16    17 ar  
    46    16    20 1   
    47    17    19 1   
    48    18    47 1   
    49    19    48 1   
    50    22    23 ar  
    51    22    49 1   
    52    23    27 ar  
    53    25    50 1   
    54    25    51 1   
    55    26    52 1   
    56    26    53 1   
    57    27    54 1   
    58    28    55 1   
    59    43    56 1   
    60    44    56 1   
@<TRIPOS>SUBSTRUCTURE
     1 JDK         1 TEMP              0 ****  ****    0 ROOT
