@<TRIPOS>MOLECULE
JDK
   56    60     1     0     0
SMALL
No Charge or Current Charge


@<TRIPOS>ATOM
      1 C10          4.0150     2.6450     1.0410 ca         1 JDK      -0.071000
      2 C13          1.2470     4.0190    -0.9850 cc         1 JDK      -0.160100
      3 C15          0.3750     1.8840    -2.1530 c3         1 JDK       0.127900
      4 C17         -1.2610     1.4310    -0.2360 ca         1 JDK      -0.093000
      5 C20         -3.5340    -1.5480     0.6060 c3         1 JDK       0.213100
      6 C22         -5.8360    -1.8070     1.4470 c6         1 JDK       0.166300
      7 C24         -7.8450    -0.9930     0.1030 c6         1 JDK      -0.075400
      8 C26         -5.4600    -0.8630    -0.7970 c6         1 JDK       0.166300
      9 C28         -0.9740    -0.2600    -1.9570 ca         1 JDK      -0.093000
     10 C02          5.2780    -2.9830     1.0250 cc         1 JDK       0.205000
     11 N03          4.3960    -3.1980    -0.0220 na         1 JDK      -0.037200
     12 N04          3.7240    -2.0470    -0.4150 nc         1 JDK      -0.531800
     13 C05          4.2100    -1.1220     0.4050 cd         1 JDK       0.342500
     14 C06          3.7610     0.2900     0.3420 ca         1 JDK      -0.109500
     15 C07          2.6780     0.6660    -0.4990 ca         1 JDK      -0.090000
     16 C08          2.2940     2.0160    -0.5400 ca         1 JDK      -0.049200
     17 C09          2.9410     2.9590     0.2050 ca         1 JDK      -0.090800
     18 C11          4.4250     1.2960     1.1010 ca         1 JDK      -0.122000
     19 C12          2.2810     4.2080    -0.0790 cd         1 JDK      -0.241200
     20 N14          1.2790     2.6360    -1.2620 na         1 JDK      -0.087700
     21 C16         -0.6410     1.0010    -1.4270 ca         1 JDK      -0.116300
     22 C18         -2.1920     0.6060     0.4180 ca         1 JDK      -0.099000
     23 C19         -2.5210    -0.6570    -0.1090 ca         1 JDK      -0.075300
     24 N21         -4.9170    -1.0130     0.5840 n3         1 JDK      -0.718600
     25 C23         -7.2470    -1.1730     1.5170 c6         1 JDK      -0.074900
     26 C25         -6.8620    -0.2050    -0.7930 c6         1 JDK      -0.074900
     27 C27         -1.9060    -1.0840    -1.3020 ca         1 JDK      -0.099000
     28 C29          5.1650    -1.6640     1.3010 cd         1 JDK      -0.278000
     29 H1           4.5190     3.4140     1.6230 ha         1 JDK       0.112000
     30 H2           0.5330     4.7060    -1.4300 h4         1 JDK       0.208000
     31 H3          -0.1680     2.6020    -2.7800 h1         1 JDK       0.062200
     32 H4           0.9890     1.2690    -2.8230 h1         1 JDK       0.062200
     33 H5          -1.0250     2.4050     0.1880 ha         1 JDK       0.114000
     34 H6          -3.5140    -2.5510     0.1560 h1         1 JDK       0.038200
     35 H7          -3.1990    -1.6640     1.6460 h1         1 JDK       0.038200
     36 H8          -5.9230    -2.8340     1.0620 h1         1 JDK       0.030450
     37 H9          -5.4330    -1.8780     2.4680 h1         1 JDK       0.030450
     38 H10         -8.0460    -1.9770    -0.3440 hc         1 JDK       0.038200
     39 H11         -8.8090    -0.4690     0.1620 hc         1 JDK       0.038200
     40 H12         -4.7920    -0.2430    -1.4120 h1         1 JDK       0.030450
     41 H13         -5.5270    -1.8470    -1.2860 h1         1 JDK       0.030450
     42 H14         -0.5100    -0.6070    -2.8780 ha         1 JDK       0.114000
     43 H15          5.9410    -4.9310     1.3290 hn         1 JDK       0.448000
     44 H16          6.6140    -3.7420     2.4150 hn         1 JDK       0.448000
     45 H17          4.2320    -4.0910    -0.4780 hn         1 JDK       0.366000
     46 H18          2.1480    -0.0720    -1.0950 ha         1 JDK       0.129000
     47 H19          5.2650     1.0410     1.7410 ha         1 JDK       0.109000
     48 H20          2.5490     5.1690     0.3560 ha         1 JDK       0.204000
     49 H21         -2.6660     0.9490     1.3350 ha         1 JDK       0.119500
     50 H23         -7.9080    -1.8030     2.1270 hc         1 JDK       0.045700
     51 H24         -7.1870    -0.1990     2.0220 hc         1 JDK       0.045700
     52 H25         -7.2500    -0.1480    -1.8180 hc         1 JDK       0.045700
     53 H26         -6.7780     0.8300    -0.4310 hc         1 JDK       0.045700
     54 H27         -2.1520    -2.0560    -1.7250 ha         1 JDK       0.119500
     55 H28          5.7060    -1.1320     2.0720 ha         1 JDK       0.145000
     56 N01          6.0510    -3.9510     1.5900 nv         1 JDK      -1.049000
@<TRIPOS>BOND
     1     1    17 ar  
     2     1    18 ar  
     3     1    29 1   
     4     2    19 2   
     5     2    20 1   
     6     2    30 1   
     7     3    20 1   
     8     3    21 1   
     9     3    31 1   
    10     3    32 1   
    11     4    21 ar  
    12     4    22 ar  
    13     4    33 1   
    14     5    23 1   
    15     5    24 1   
    16     5    34 1   
    17     5    35 1   
    18     6    24 1   
    19     6    25 1   
    20     6    36 1   
    21     6    37 1   
    22     7    25 1   
    23     7    26 1   
    24     7    38 1   
    25     7    39 1   
    26     8    24 1   
    27     8    26 1   
    28     8    40 1   
    29     8    41 1   
    30     9    21 ar  
    31     9    27 ar  
    32     9    42 1   
    33    10    11 1   
    34    10    28 2   
    35    10    56 1   
    36    11    12 1   
    37    11    45 1   
    38    12    13 2   
    39    13    14 1   
    40    13    28 1   
    41    14    15 ar  
    42    14    18 ar  
    43    15    16 ar  
    44    15    46 1   
    45    16    17 ar  
    46    16    20 1   
    47    17    19 1   
    48    18    47 1   
    49    19    48 1   
    50    22    23 ar  
    51    22    49 1   
    52    23    27 ar  
    53    25    50 1   
    54    25    51 1   
    55    26    52 1   
    56    26    53 1   
    57    27    54 1   
    58    28    55 1   
    59    43    56 1   
    60    44    56 1   
@<TRIPOS>SUBSTRUCTURE
     1 JDK         1 TEMP              0 ****  ****    0 ROOT
