@<TRIPOS>MOLECULE
JDM
   34    35     1     0     0
SMALL
No Charge or Current Charge


@<TRIPOS>ATOM
      1 OAJ         -3.1430    -2.9410    -0.4460 o          1 JDM      -0.686500
      2 CAI         -2.1410    -2.2350    -0.4900 c          1 JDM       0.718200
      3 OAK         -1.0310    -2.7110    -0.6800 o          1 JDM      -0.686500
      4 C4          -2.3310    -0.7380    -0.2810 cc         1 JDM       0.028400
      5 N3          -3.6430    -0.3370    -0.0340 ns         1 JDM      -0.494600
      6 C2          -4.0680     0.9260     0.2070 c          1 JDM       0.605000
      7 O2          -5.2340     1.1980     0.4160 o          1 JDM      -0.609000
      8 N1          -3.0840     1.8520     0.1990 ns         1 JDM      -0.470500
      9 C6          -1.7540     1.6700    -0.0240 c          1 JDM       0.580200
     10 O6          -0.9900     2.6210     0.0120 o          1 JDM      -0.596000
     11 C5          -1.3490     0.2560    -0.2970 cd         1 JDM      -0.295400
     12 CAL          0.1370     0.0550    -0.5620 c3         1 JDM       0.017800
     13 CAM          0.9260    -0.2670     0.7260 c3         1 JDM      -0.038100
     14 CAN          2.4180    -0.4960     0.4690 ca         1 JDM      -0.057300
     15 CAO          2.8870    -1.8270     0.4330 ca         1 JDM      -0.103000
     16 CAP          4.2440    -2.1070     0.2090 ca         1 JDM      -0.119000
     17 CAQ          5.1510    -1.0580     0.0180 ca         1 JDM      -0.135000
     18 CAR          4.7000     0.2710     0.0470 ca         1 JDM      -0.098000
     19 CAS          3.3380     0.5700     0.2680 ca         1 JDM      -0.084300
     20 CAT          2.9270     2.0460     0.2810 c3         1 JDM       0.198900
     21 OAU          2.9750     2.5900    -1.0450 oh         1 JDM      -0.671000
     22 H2          -4.3740    -1.0430    -0.0230 hn         1 JDM       0.490000
     23 H3          -3.3720     2.8000     0.3810 hn         1 JDM       0.318500
     24 H4           0.3060    -0.7360    -1.3010 hc         1 JDM       0.057700
     25 H5           0.5720     0.9450    -1.0310 hc         1 JDM       0.057700
     26 H6           0.7740     0.5300     1.4620 hc         1 JDM       0.052200
     27 H7           0.4850    -1.1600     1.1850 hc         1 JDM       0.052200
     28 H8           2.1930    -2.6530     0.5770 ha         1 JDM       0.137000
     29 H9           4.5900    -3.1380     0.1840 ha         1 JDM       0.102000
     30 H10          6.2030    -1.2720    -0.1560 ha         1 JDM       0.095000
     31 H11          5.4120     1.0780    -0.1080 ha         1 JDM       0.116000
     32 H12          1.9250     2.1770     0.7060 h1         1 JDM       0.040200
     33 H13          3.6180     2.5940     0.9370 h1         1 JDM       0.040200
     34 H14          2.6590     3.5180    -0.9800 ho         1 JDM       0.438000
@<TRIPOS>BOND
     1     1     2 1   
     2     2     3 1   
     3     2     4 1   
     4     4     5 1   
     5     4    11 2   
     6     5     6 1   
     7     5    22 1   
     8     6     7 2   
     9     6     8 1   
    10     8     9 1   
    11     8    23 1   
    12     9    10 2   
    13     9    11 1   
    14    11    12 1   
    15    12    13 1   
    16    12    24 1   
    17    12    25 1   
    18    13    14 1   
    19    13    26 1   
    20    13    27 1   
    21    14    15 ar  
    22    14    19 ar  
    23    15    16 ar  
    24    15    28 1   
    25    16    17 ar  
    26    16    29 1   
    27    17    18 ar  
    28    17    30 1   
    29    18    19 ar  
    30    18    31 1   
    31    19    20 1   
    32    20    21 1   
    33    20    32 1   
    34    20    33 1   
    35    21    34 1   
@<TRIPOS>SUBSTRUCTURE
     1 JDM         1 TEMP              0 ****  ****    0 ROOT
