@<TRIPOS>MOLECULE
JDM
   34    35     1     0     0
SMALL
abcg2


@<TRIPOS>ATOM
      1 OAJ         -3.2480    -2.8930     0.0870 o          1 JDM      -0.686500
      2 CAI         -2.1670    -2.2910    -0.0380 c          1 JDM       0.718200
      3 OAK         -1.0280    -2.7670    -0.0960 o          1 JDM      -0.686500
      4 C4          -2.3090    -0.7560    -0.1090 cc         1 JDM       0.028400
      5 N3          -3.5970    -0.3590     0.1250 ns         1 JDM      -0.494600
      6 C2          -4.0340     0.9260     0.1510 c          1 JDM       0.605000
      7 O2          -5.1900     1.2460     0.3610 o          1 JDM      -0.609000
      8 N1          -3.0380     1.8370    -0.0800 ns         1 JDM      -0.470500
      9 C6          -1.7040     1.5660    -0.3260 c          1 JDM       0.580200
     10 O6          -0.9260     2.4920    -0.4950 o          1 JDM      -0.596000
     11 C5          -1.3380     0.1560    -0.3610 cd         1 JDM      -0.295400
     12 CAL          0.1070    -0.1460    -0.6220 c3         1 JDM       0.017800
     13 CAM          0.9300    -0.2010     0.6730 c3         1 JDM      -0.038100
     14 CAN          2.3870    -0.4420     0.3890 ca         1 JDM      -0.057300
     15 CAO          2.8380    -1.7510     0.2530 ca         1 JDM      -0.103000
     16 CAP          4.1620    -2.0310    -0.0550 ca         1 JDM      -0.119000
     17 CAQ          5.0540    -0.9850    -0.2320 ca         1 JDM      -0.135000
     18 CAR          4.6180     0.3280    -0.1010 ca         1 JDM      -0.098000
     19 CAS          3.2900     0.6140     0.2040 ca         1 JDM      -0.084300
     20 CAT          2.8200     2.0370     0.3680 c3         1 JDM       0.198900
     21 OAU          3.8240     2.9330    -0.0350 oh         1 JDM      -0.671000
     22 H2          -4.2590    -1.1120     0.2760 hn         1 JDM       0.490000
     23 H3          -3.3080     2.8120    -0.0570 hn         1 JDM       0.318500
     24 H4           0.2080    -1.0960    -1.1380 hc         1 JDM       0.057700
     25 H5           0.5160     0.6210    -1.2810 hc         1 JDM       0.057700
     26 H6           0.7870     0.7170     1.2460 hc         1 JDM       0.052200
     27 H7           0.5370    -1.0130     1.2860 hc         1 JDM       0.052200
     28 H8           2.1310    -2.5620     0.3880 ha         1 JDM       0.137000
     29 H9           4.4920    -3.0570    -0.1540 ha         1 JDM       0.102000
     30 H10          6.0920    -1.1850    -0.4680 ha         1 JDM       0.095000
     31 H11          5.3270     1.1320    -0.2380 ha         1 JDM       0.116000
     32 H12          1.8990     2.1890    -0.2080 h1         1 JDM       0.040200
     33 H13          2.5450     2.1960     1.4210 h1         1 JDM       0.040200
     34 H14          3.5060     3.8260     0.1270 ho         1 JDM       0.438000
@<TRIPOS>BOND
     1     1     2 1   
     2     2     3 1   
     3     2     4 1   
     4     4     5 1   
     5     4    11 2   
     6     5     6 1   
     7     5    22 1   
     8     6     7 2   
     9     6     8 1   
    10     8     9 1   
    11     8    23 1   
    12     9    10 2   
    13     9    11 1   
    14    11    12 1   
    15    12    13 1   
    16    12    24 1   
    17    12    25 1   
    18    13    14 1   
    19    13    26 1   
    20    13    27 1   
    21    14    15 ar  
    22    14    19 ar  
    23    15    16 ar  
    24    15    28 1   
    25    16    17 ar  
    26    16    29 1   
    27    17    18 ar  
    28    17    30 1   
    29    18    19 ar  
    30    18    31 1   
    31    19    20 1   
    32    20    21 1   
    33    20    32 1   
    34    20    33 1   
    35    21    34 1   
@<TRIPOS>SUBSTRUCTURE
     1 JDM         1 TEMP              0 ****  ****    0 ROOT
