@<TRIPOS>MOLECULE
JDO
  158   166     1     0     0
SMALL
abcg2


@<TRIPOS>ATOM
      1 OCG        -15.4700    -2.8760   -26.7670 oh         1 JDO      -0.711000
      2 CCF        -16.1840    -1.9310   -27.5200 c6         1 JDO       0.155300
      3 CCL        -17.1180    -1.1020   -26.6470 c6         1 JDO       0.124300
      4 OCM        -16.3140    -0.3890   -25.7370 oh         1 JDO      -0.666000
      5 CCJ        -17.9860    -0.1730   -27.4890 c6         1 JDO       0.107300
      6 OCK        -18.9180     0.4390   -26.6340 oh         1 JDO      -0.753000
      7 CCI        -18.6820    -0.9770   -28.5920 c6         1 JDO       0.156300
      8 CCN        -19.4310    -0.0830   -29.5560 c3         1 JDO       0.171600
      9 OCO        -20.0880    -0.8800   -30.5100 oh         1 JDO      -0.699000
     10 OCH        -17.7170    -1.6960   -29.3310 os         1 JDO      -0.466000
     11 CCE        -17.0260    -2.6500   -28.5690 c6         1 JDO       0.397300
     12 OBV        -16.1790    -3.3560   -29.4010 os         1 JDO      -0.439000
     13 CBU        -16.7570    -4.2310   -30.3470 c6         1 JDO       0.119300
     14 CCA        -16.4960    -5.6760   -29.9350 c6         1 JDO       0.115300
     15 OCB        -17.2550    -5.9940   -28.7740 os         1 JDO      -0.440000
     16 CCP        -16.5520    -6.2010   -27.6030 c6         1 JDO       0.392300
     17 OCS        -15.8690    -7.4250   -27.7190 os         1 JDO      -0.487000
     18 CCT        -15.0270    -7.7180   -26.6220 c6         1 JDO       0.186300
     19 CCY        -14.2530    -8.9750   -26.9540 c3         1 JDO       0.171600
     20 OCZ        -13.4620    -8.7270   -28.0910 oh         1 JDO      -0.706000
     21 CCU        -15.8860    -7.8720   -25.3670 c6         1 JDO       0.112300
     22 OCV        -15.0360    -8.0840   -24.2660 oh         1 JDO      -0.719000
     23 CCW        -16.7290    -6.6110   -25.1800 c6         1 JDO       0.092300
     24 OCX        -17.6410    -6.7470   -24.1120 oh         1 JDO      -0.668000
     25 CCQ        -17.5320    -6.3010   -26.4400 c6         1 JDO       0.156300
     26 OCR        -18.2410    -5.0980   -26.3180 oh         1 JDO      -0.703000
     27 CBY        -16.8990    -6.6440   -31.0460 c6         1 JDO       0.143300
     28 OBZ        -16.5030    -7.9610   -30.7700 oh         1 JDO      -0.722000
     29 CBX        -16.2180    -6.2130   -32.3460 c6         1 JDO       0.184300
     30 CCC        -16.5530    -7.0790   -33.5410 c3         1 JDO       0.176600
     31 OCD        -17.9440    -7.0890   -33.7520 oh         1 JDO      -0.706000
     32 OBW        -16.5870    -4.8840   -32.6460 os         1 JDO      -0.454000
     33 CBT        -16.1140    -3.9480   -31.7150 c6         1 JDO       0.401300
     34 OAJ        -16.5040    -2.7080   -32.1750 os         1 JDO      -0.421000
     35 CAI        -15.5390    -1.6990   -32.4110 c5         1 JDO       0.233200
     36 CAG        -14.5920    -1.9460   -33.5680 c2         1 JDO      -0.155400
     37 CAF        -13.3220    -1.1880   -33.2650 c5         1 JDO      -0.040200
     38 CAH        -14.8390    -2.6900   -34.6380 c2         1 JDO      -0.301000
     39 CAE        -14.5750    -1.3920   -31.2650 c5         1 JDO      -0.092400
     40 CAK        -16.3530    -0.4330   -32.6930 c6         1 JDO      -0.060400
     41 CAL        -15.4810     0.7720   -33.0480 c6         1 JDO      -0.063400
     42 CAM        -14.1990     0.9440   -32.2060 c6         1 JDO      -0.036700
     43 CAD        -13.5770    -0.4420   -31.9320 c5         1 JDO      -0.045000
     44 CAC        -12.2850    -0.2910   -31.1450 c6         1 JDO      -0.064400
     45 CAB        -12.4750     0.5320   -29.8840 c6         1 JDO      -0.070400
     46 CAA        -12.9540     1.9350   -30.2510 c6         1 JDO      -0.039700
     47 CAN        -14.3290     1.9040   -30.9740 c6         1 JDO      -0.021000
     48 CAO        -15.4800     1.5300   -30.0330 c3         1 JDO      -0.094100
     49 CAP        -14.5980     3.3190   -31.5280 c6         1 JDO      -0.076400
     50 CAQ        -14.5180     4.4180   -30.4760 c6         1 JDO      -0.074400
     51 CAR        -13.1860     4.3790   -29.7420 c6         1 JDO      -0.061400
     52 CAS        -12.8200     3.0160   -29.1350 c6         1 JDO      -0.077000
     53 CAT        -11.3540     3.1120   -28.6700 c3         1 JDO      -0.094100
     54 CAU        -13.6040     2.6480   -27.8830 c          1 JDO       0.622100
     55 OAV        -13.4530     1.6200   -27.2770 o          1 JDO      -0.478000
     56 O1         -14.4410     3.6090   -27.4680 os         1 JDO      -0.428100
     57 C1         -15.2510     3.3870   -26.3420 c6         1 JDO       0.391300
     58 O5         -16.5210     3.8020   -26.7290 os         1 JDO      -0.443000
     59 C5         -17.5000     3.5790   -25.7290 c6         1 JDO       0.173300
     60 C6         -18.8450     3.9460   -26.3150 c3         1 JDO       0.170600
     61 O6         -19.1130     3.0880   -27.4100 oh         1 JDO      -0.732000
     62 C4         -17.1680     4.4100   -24.4870 c6         1 JDO       0.146300
     63 O4         -18.1190     4.1090   -23.5000 oh         1 JDO      -0.719000
     64 C3         -15.7520     4.0780   -24.0210 c6         1 JDO       0.110300
     65 O3         -15.4520     4.9220   -22.9380 oh         1 JDO      -0.733000
     66 C2         -14.7670     4.2390   -25.1770 c6         1 JDO       0.099300
     67 O2         -13.4860     3.7890   -24.7960 os         1 JDO      -0.439000
     68 CBI        -12.5760     4.7510   -24.4000 c6         1 JDO       0.371300
     69 OBJ        -11.7600     5.0540   -25.4980 os         1 JDO      -0.458000
     70 CBK        -10.8350     6.0900   -25.2310 c6         1 JDO       0.178300
     71 CBL        -10.1050     6.4050   -26.5200 c3         1 JDO       0.171600
     72 OBM        -11.0400     6.8680   -27.4660 oh         1 JDO      -0.711000
     73 CBN         -9.8790     5.6450   -24.1220 c6         1 JDO       0.143300
     74 OBO         -9.0190     6.7180   -23.8330 oh         1 JDO      -0.716000
     75 CBP        -10.6750     5.2260   -22.8880 c6         1 JDO       0.132300
     76 OBQ         -9.7580     4.7340   -21.9420 oh         1 JDO      -0.663000
     77 CBR        -11.7290     4.1920   -23.2610 c6         1 JDO       0.104300
     78 OBS        -12.5270     3.9300   -22.1260 oh         1 JDO      -0.734000
     79 H1         -15.0550    -2.4150   -26.0300 ho         1 JDO       0.519000
     80 H2         -15.4980    -1.2460   -28.0450 h1         1 JDO       0.064700
     81 H3         -17.7860    -1.7980   -26.1130 h1         1 JDO       0.054700
     82 H4         -16.8880     0.0260   -25.0840 ho         1 JDO       0.454000
     83 H5         -17.3280     0.5710   -27.9640 h1         1 JDO       0.061700
     84 H6         -19.0550     1.3590   -26.9250 ho         1 JDO       0.536000
     85 H7         -19.3930    -1.6740   -28.1170 h1         1 JDO       0.061700
     86 H8         -18.7170     0.6100   -30.0250 h1         1 JDO       0.023700
     87 H9         -20.1390     0.5270   -28.9820 h1         1 JDO       0.023700
     88 H10        -20.5910    -0.2990   -31.0880 ho         1 JDO       0.499000
     89 H11        -17.7490    -3.3200   -28.0750 h2         1 JDO       0.062700
     90 H12        -17.8390    -4.0710   -30.4440 h1         1 JDO       0.096700
     91 H13        -15.4210    -5.7990   -29.7420 h1         1 JDO       0.071700
     92 H14        -15.8290    -5.3900   -27.4190 h2         1 JDO       0.068700
     93 H15        -14.3140    -6.8910   -26.4640 h1         1 JDO       0.064700
     94 H16        -14.9640    -9.7970   -27.1200 h1         1 JDO       0.032200
     95 H17        -13.6460    -9.2440   -26.0840 h1         1 JDO       0.032200
     96 H18        -12.9230    -9.5050   -28.2560 ho         1 JDO       0.503000
     97 H19        -16.5620    -8.7270   -25.5160 h1         1 JDO       0.055700
     98 H20        -15.5500    -8.4590   -23.5450 ho         1 JDO       0.511000
     99 H21        -16.0430    -5.7690   -25.0010 h1         1 JDO       0.061700
    100 H22        -17.2210    -6.4490   -23.3000 ho         1 JDO       0.452000
    101 H23        -18.2130    -7.1430   -26.6440 h1         1 JDO       0.061700
    102 H24        -18.7430    -5.1320   -25.4960 ho         1 JDO       0.517000
    103 H25        -17.9890    -6.5730   -31.1800 h1         1 JDO       0.073700
    104 H26        -16.8040    -8.1960   -29.8860 ho         1 JDO       0.528000
    105 H27        -15.1270    -6.2830   -32.2020 h1         1 JDO       0.043700
    106 H28        -16.1540    -8.0830   -33.3580 h1         1 JDO       0.031200
    107 H29        -16.0120    -6.6800   -34.4100 h1         1 JDO       0.031200
    108 H30        -18.1370    -7.7200   -34.4510 ho         1 JDO       0.498000
    109 H31        -15.0180    -4.0360   -31.6270 h2         1 JDO       0.034700
    110 H32        -12.5030    -1.9000   -33.1160 hc         1 JDO       0.047700
    111 H33        -13.0140    -0.5240   -34.0770 hc         1 JDO       0.047700
    112 H34        -15.7740    -3.2210   -34.7620 ha         1 JDO       0.171000
    113 H35        -14.1070    -2.8040   -35.4290 ha         1 JDO       0.171000
    114 H36        -15.0970    -0.9910   -30.4020 hc         1 JDO       0.063200
    115 H37        -14.0390    -2.2880   -30.9400 hc         1 JDO       0.063200
    116 H38        -16.9700    -0.2310   -31.8130 hc         1 JDO       0.057700
    117 H39        -17.0410    -0.6270   -33.5210 hc         1 JDO       0.057700
    118 H40        -15.1810     0.6770   -34.0940 hc         1 JDO       0.037700
    119 H41        -16.0980     1.6710   -33.0100 hc         1 JDO       0.037700
    120 H42        -13.4750     1.4550   -32.8550 hc         1 JDO       0.034700
    121 H43        -11.8920    -1.2820   -30.8980 hc         1 JDO       0.038200
    122 H44        -11.5310     0.1910   -31.7800 hc         1 JDO       0.038200
    123 H45        -13.1760     0.0250   -29.2180 hc         1 JDO       0.053700
    124 H46        -11.5270     0.5790   -29.3460 hc         1 JDO       0.053700
    125 H47        -12.2430     2.2940   -31.0120 hc         1 JDO       0.042700
    126 H48        -15.7610     2.3570   -29.3820 hc         1 JDO       0.040033
    127 H49        -16.3810     1.2770   -30.5900 hc         1 JDO       0.040033
    128 H50        -15.2550     0.6860   -29.3830 hc         1 JDO       0.040033
    129 H51        -13.8570     3.5300   -32.3080 hc         1 JDO       0.036700
    130 H52        -15.5760     3.3560   -32.0140 hc         1 JDO       0.036700
    131 H53        -14.6220     5.3880   -30.9680 hc         1 JDO       0.048200
    132 H54        -15.3530     4.3500   -29.7780 hc         1 JDO       0.048200
    133 H55        -12.3980     4.6010   -30.4700 hc         1 JDO       0.047700
    134 H56        -13.1220     5.1660   -28.9890 hc         1 JDO       0.047700
    135 H57        -11.2270     3.9490   -27.9830 hc         1 JDO       0.047033
    136 H58        -11.0060     2.2140   -28.1640 hc         1 JDO       0.047033
    137 H59        -10.7080     3.2880   -29.5310 hc         1 JDO       0.047033
    138 H60        -15.2550     2.3240   -26.0660 h2         1 JDO       0.079700
    139 H61        -17.5060     2.5150   -25.4430 h1         1 JDO       0.063700
    140 H62        -18.8280     4.9940   -26.6370 h1         1 JDO       0.047700
    141 H63        -19.6070     3.8480   -25.5380 h1         1 JDO       0.047700
    142 H64        -19.9830     3.3020   -27.7640 ho         1 JDO       0.515000
    143 H65        -17.2020     5.4760   -24.7640 h1         1 JDO       0.057700
    144 H66        -17.9100     4.6270   -22.7150 ho         1 JDO       0.528000
    145 H67        -15.7380     3.0220   -23.7090 h1         1 JDO       0.051700
    146 H68        -14.6760     4.5830   -22.4720 ho         1 JDO       0.530000
    147 H69        -14.7400     5.2890   -25.4990 h1         1 JDO       0.084700
    148 H70        -13.0860     5.6670   -24.0570 h2         1 JDO       0.043700
    149 H71        -11.3680     6.9940   -24.8920 h1         1 JDO       0.061700
    150 H72         -9.5870     5.4990   -26.8640 h1         1 JDO       0.037700
    151 H73         -9.3370     7.1570   -26.3090 h1         1 JDO       0.037700
    152 H74        -10.5730     7.0310   -28.2900 ho         1 JDO       0.505000
    153 H75         -9.3180     4.7690   -24.4840 h1         1 JDO       0.056700
    154 H76         -8.4200     6.4430   -23.1310 ho         1 JDO       0.526000
    155 H77        -11.1950     6.1200   -22.5060 h1         1 JDO       0.054700
    156 H78        -10.2130     4.6300   -21.0990 ho         1 JDO       0.464000
    157 H79        -11.2280     3.2800   -23.6120 h1         1 JDO       0.076700
    158 H80        -12.8040     3.0090   -22.1490 ho         1 JDO       0.522000
@<TRIPOS>BOND
     1     1     2 1   
     2     1    79 1   
     3     2     3 1   
     4     2    11 1   
     5     2    80 1   
     6     3     4 1   
     7     3     5 1   
     8     3    81 1   
     9     4    82 1   
    10     5     6 1   
    11     5     7 1   
    12     5    83 1   
    13     6    84 1   
    14     7     8 1   
    15     7    10 1   
    16     7    85 1   
    17     8     9 1   
    18     8    86 1   
    19     8    87 1   
    20     9    88 1   
    21    10    11 1   
    22    11    12 1   
    23    11    89 1   
    24    12    13 1   
    25    13    14 1   
    26    13    33 1   
    27    13    90 1   
    28    14    15 1   
    29    14    27 1   
    30    14    91 1   
    31    15    16 1   
    32    16    17 1   
    33    16    25 1   
    34    16    92 1   
    35    17    18 1   
    36    18    19 1   
    37    18    21 1   
    38    18    93 1   
    39    19    20 1   
    40    19    94 1   
    41    19    95 1   
    42    20    96 1   
    43    21    22 1   
    44    21    23 1   
    45    21    97 1   
    46    22    98 1   
    47    23    24 1   
    48    23    25 1   
    49    23    99 1   
    50    24   100 1   
    51    25    26 1   
    52    25   101 1   
    53    26   102 1   
    54    27    28 1   
    55    27    29 1   
    56    27   103 1   
    57    28   104 1   
    58    29    30 1   
    59    29    32 1   
    60    29   105 1   
    61    30    31 1   
    62    30   106 1   
    63    30   107 1   
    64    31   108 1   
    65    32    33 1   
    66    33    34 1   
    67    33   109 1   
    68    34    35 1   
    69    35    36 1   
    70    35    39 1   
    71    35    40 1   
    72    36    37 1   
    73    36    38 2   
    74    37    43 1   
    75    37   110 1   
    76    37   111 1   
    77    38   112 1   
    78    38   113 1   
    79    39    43 1   
    80    39   114 1   
    81    39   115 1   
    82    40    41 1   
    83    40   116 1   
    84    40   117 1   
    85    41    42 1   
    86    41   118 1   
    87    41   119 1   
    88    42    43 1   
    89    42    47 1   
    90    42   120 1   
    91    43    44 1   
    92    44    45 1   
    93    44   121 1   
    94    44   122 1   
    95    45    46 1   
    96    45   123 1   
    97    45   124 1   
    98    46    47 1   
    99    46    52 1   
   100    46   125 1   
   101    47    48 1   
   102    47    49 1   
   103    48   126 1   
   104    48   127 1   
   105    48   128 1   
   106    49    50 1   
   107    49   129 1   
   108    49   130 1   
   109    50    51 1   
   110    50   131 1   
   111    50   132 1   
   112    51    52 1   
   113    51   133 1   
   114    51   134 1   
   115    52    53 1   
   116    52    54 1   
   117    53   135 1   
   118    53   136 1   
   119    53   137 1   
   120    54    55 2   
   121    54    56 1   
   122    56    57 1   
   123    57    58 1   
   124    57    66 1   
   125    57   138 1   
   126    58    59 1   
   127    59    60 1   
   128    59    62 1   
   129    59   139 1   
   130    60    61 1   
   131    60   140 1   
   132    60   141 1   
   133    61   142 1   
   134    62    63 1   
   135    62    64 1   
   136    62   143 1   
   137    63   144 1   
   138    64    65 1   
   139    64    66 1   
   140    64   145 1   
   141    65   146 1   
   142    66    67 1   
   143    66   147 1   
   144    67    68 1   
   145    68    69 1   
   146    68    77 1   
   147    68   148 1   
   148    69    70 1   
   149    70    71 1   
   150    70    73 1   
   151    70   149 1   
   152    71    72 1   
   153    71   150 1   
   154    71   151 1   
   155    72   152 1   
   156    73    74 1   
   157    73    75 1   
   158    73   153 1   
   159    74   154 1   
   160    75    76 1   
   161    75    77 1   
   162    75   155 1   
   163    76   156 1   
   164    77    78 1   
   165    77   157 1   
   166    78   158 1   
@<TRIPOS>SUBSTRUCTURE
     1 JDO         1 TEMP              0 ****  ****    0 ROOT
