@<TRIPOS>MOLECULE
JDO
  158   166     1     0     0
SMALL
No Charge or Current Charge


@<TRIPOS>ATOM
      1 OCG        -15.1060    -3.1740   -26.7110 oh         1 JDO      -0.711000
      2 CCF        -15.9630    -2.2080   -27.3630 c6         1 JDO       0.155300
      3 CCL        -16.8570    -1.5060   -26.3060 c6         1 JDO       0.124300
      4 OCM        -16.0550    -0.8920   -25.2830 oh         1 JDO      -0.666000
      5 CCJ        -17.7710    -0.4430   -26.9850 c6         1 JDO       0.107300
      6 OCK        -18.6160     0.1730   -25.9900 oh         1 JDO      -0.753000
      7 CCI        -18.5940    -1.1390   -28.1190 c6         1 JDO       0.156300
      8 CCN        -19.4930    -0.1410   -28.9210 c3         1 JDO       0.171600
      9 OCO        -20.2140    -0.7640   -30.0020 oh         1 JDO      -0.699000
     10 OCH        -17.6890    -1.7810   -29.0530 os         1 JDO      -0.466000
     11 CCE        -16.8800    -2.8260   -28.4750 c6         1 JDO       0.397300
     12 OBV        -16.0750    -3.3890   -29.5250 os         1 JDO      -0.439000
     13 CBU        -16.7690    -4.2040   -30.5050 c6         1 JDO       0.119300
     14 CCA        -16.7020    -5.6940   -30.0770 c6         1 JDO       0.115300
     15 OCB        -17.4710    -5.9260   -28.8720 os         1 JDO      -0.440000
     16 CCP        -16.7440    -6.4880   -27.7670 c6         1 JDO       0.392300
     17 OCS        -16.3580    -7.8280   -28.1370 os         1 JDO      -0.487000
     18 CCT        -15.5370    -8.4940   -27.1400 c6         1 JDO       0.186300
     19 CCY        -15.0780    -9.8680   -27.7300 c3         1 JDO       0.171600
     20 OCZ        -14.3950    -9.7420   -28.9940 oh         1 JDO      -0.706000
     21 CCU        -16.3400    -8.6390   -25.8020 c6         1 JDO       0.112300
     22 OCV        -15.5540    -9.2410   -24.7500 oh         1 JDO      -0.719000
     23 CCW        -16.8270    -7.2310   -25.3440 c6         1 JDO       0.092300
     24 OCX        -17.6200    -7.3370   -24.1470 oh         1 JDO      -0.668000
     25 CCQ        -17.6330    -6.5420   -26.4780 c6         1 JDO       0.156300
     26 OCR        -18.0870    -5.2480   -26.0250 oh         1 JDO      -0.703000
     27 CBY        -17.1690    -6.6700   -31.1920 c6         1 JDO       0.143300
     28 OBZ        -16.9380    -8.0340   -30.7790 oh         1 JDO      -0.722000
     29 CBX        -16.4520    -6.3250   -32.5330 c6         1 JDO       0.184300
     30 CCC        -16.9430    -7.2070   -33.7320 c3         1 JDO       0.176600
     31 OCD        -18.3240    -6.9930   -34.0940 oh         1 JDO      -0.706000
     32 OBW        -16.6960    -4.9360   -32.8660 os         1 JDO      -0.454000
     33 CBT        -16.1490    -3.9890   -31.9280 c6         1 JDO       0.401300
     34 OAJ        -16.4990    -2.6730   -32.4020 os         1 JDO      -0.421000
     35 CAI        -15.4860    -1.6400   -32.5590 c5         1 JDO       0.233200
     36 CAG        -14.4670    -2.0200   -33.6170 c2         1 JDO      -0.155400
     37 CAF        -13.1300    -1.4500   -33.1680 c5         1 JDO      -0.040200
     38 CAH        -14.6920    -2.6910   -34.7580 c2         1 JDO      -0.301000
     39 CAE        -14.5850    -1.5110   -31.2960 c5         1 JDO      -0.092400
     40 CAK        -16.1940    -0.3110   -32.9250 c6         1 JDO      -0.060400
     41 CAL        -15.1900     0.8510   -33.1910 c6         1 JDO      -0.063400
     42 CAM        -13.9260     0.8680   -32.1860 c6         1 JDO      -0.036700
     43 CAD        -13.4500    -0.6080   -31.8700 c5         1 JDO      -0.045000
     44 CAC        -12.1840    -0.5210   -30.9310 c6         1 JDO      -0.064400
     45 CAB        -12.3010     0.3740   -29.6490 c6         1 JDO      -0.070400
     46 CAA        -12.6660     1.8350   -30.0530 c6         1 JDO      -0.039700
     47 CAN        -14.0420     1.8390   -30.8880 c6         1 JDO      -0.021000
     48 CAO        -15.2860     1.4870   -29.9910 c3         1 JDO      -0.094100
     49 CAP        -14.2220     3.3320   -31.3890 c6         1 JDO      -0.076400
     50 CAQ        -14.1270     4.4500   -30.2890 c6         1 JDO      -0.074400
     51 CAR        -12.8250     4.3150   -29.4600 c6         1 JDO      -0.061400
     52 CAS        -12.5110     2.8850   -28.8710 c6         1 JDO      -0.077000
     53 CAT        -11.0160     2.9490   -28.3850 c3         1 JDO      -0.094100
     54 CAU        -13.3840     2.5210   -27.6160 c          1 JDO       0.622100
     55 OAV        -12.9520     1.8220   -26.7070 o          1 JDO      -0.478000
     56 O1         -14.5290     3.2550   -27.4780 os         1 JDO      -0.428100
     57 C1         -15.2500     3.2540   -26.2400 c6         1 JDO       0.391300
     58 O5         -16.6400     3.4700   -26.5610 os         1 JDO      -0.443000
     59 C5         -17.5280     3.4920   -25.4140 c6         1 JDO       0.173300
     60 C6         -18.9950     3.6250   -25.9350 c3         1 JDO       0.170600
     61 O6         -19.3740     2.5780   -26.8560 oh         1 JDO      -0.732000
     62 C4         -17.1270     4.6650   -24.4700 c6         1 JDO       0.146300
     63 O4         -17.9360     4.7230   -23.2840 oh         1 JDO      -0.719000
     64 C3         -15.6410     4.5050   -24.0510 c6         1 JDO       0.110300
     65 O3         -15.2700     5.5750   -23.1560 oh         1 JDO      -0.733000
     66 C2         -14.7350     4.4140   -25.3230 c6         1 JDO       0.099300
     67 O2         -13.3390     4.2370   -24.9680 os         1 JDO      -0.439000
     68 CBI        -12.6090     5.4390   -24.6650 c6         1 JDO       0.371300
     69 OBJ        -11.6530     5.6750   -25.7140 os         1 JDO      -0.458000
     70 CBK        -10.9160     6.9170   -25.5620 c6         1 JDO       0.178300
     71 CBL         -9.9860     7.1000   -26.8070 c3         1 JDO       0.171600
     72 OBM        -10.7000     7.1090   -28.0610 oh         1 JDO      -0.711000
     73 CBN        -10.1150     6.8950   -24.2190 c6         1 JDO       0.143300
     74 OBO         -9.4080     8.1270   -23.9840 oh         1 JDO      -0.716000
     75 CBP        -11.0880     6.6210   -23.0310 c6         1 JDO       0.132300
     76 OBQ        -10.3540     6.5520   -21.7940 oh         1 JDO      -0.663000
     77 CBR        -11.8880     5.3100   -23.2840 c6         1 JDO       0.104300
     78 OBS        -12.8230     5.0500   -22.2020 oh         1 JDO      -0.734000
     79 H1         -14.8660    -2.7450   -25.8560 ho         1 JDO       0.519000
     80 H2         -15.3420    -1.4380   -27.8450 h1         1 JDO       0.064700
     81 H3         -17.5090    -2.2700   -25.8530 h1         1 JDO       0.054700
     82 H4         -16.6840    -0.3160   -24.7920 ho         1 JDO       0.454000
     83 H5         -17.1260     0.3200   -27.4490 h1         1 JDO       0.061700
     84 H6         -18.8900     1.0720   -26.3480 ho         1 JDO       0.536000
     85 H7         -19.2470    -1.9060   -27.6770 h1         1 JDO       0.061700
     86 H8         -18.8520     0.6620   -29.3110 h1         1 JDO       0.023700
     87 H9         -20.2050     0.3170   -28.2230 h1         1 JDO       0.023700
     88 H10        -20.6830    -0.0470   -30.4860 ho         1 JDO       0.499000
     89 H11        -17.5240    -3.5990   -28.0320 h2         1 JDO       0.062700
     90 H12        -17.8230    -3.8960   -30.5630 h1         1 JDO       0.096700
     91 H13        -15.6410    -5.9100   -29.8770 h1         1 JDO       0.071700
     92 H14        -15.8500    -5.8760   -27.5670 h2         1 JDO       0.068700
     93 H15        -14.6370    -7.8870   -26.9600 h1         1 JDO       0.064700
     94 H16        -15.9660   -10.5040   -27.8450 h1         1 JDO       0.032200
     95 H17        -14.4190   -10.3560   -26.9990 h1         1 JDO       0.032200
     96 H18        -14.2170   -10.6560   -29.3170 ho         1 JDO       0.503000
     97 H19        -17.2290    -9.2570   -26.0060 h1         1 JDO       0.055700
     98 H20        -15.6660   -10.2190   -24.8120 ho         1 JDO       0.511000
     99 H21        -15.9340    -6.6180   -25.1410 h1         1 JDO       0.061700
    100 H22        -17.1460    -7.9900   -23.5820 ho         1 JDO       0.452000
    101 H23        -18.5040    -7.1740   -26.7090 h1         1 JDO       0.061700
    102 H24        -18.3200    -5.3950   -25.0780 ho         1 JDO       0.517000
    103 H25        -18.2480    -6.5090   -31.3420 h1         1 JDO       0.073700
    104 H26        -16.7710    -8.0000   -29.7960 ho         1 JDO       0.528000
    105 H27        -15.3680    -6.4760   -32.4190 h1         1 JDO       0.043700
    106 H28        -16.7780    -8.2630   -33.4760 h1         1 JDO       0.031200
    107 H29        -16.2960    -6.9850   -34.5910 h1         1 JDO       0.031200
    108 H30        -18.5010    -7.5490   -34.8880 ho         1 JDO       0.498000
    109 H31        -15.0580    -4.1190   -31.8960 h2         1 JDO       0.034700
    110 H32        -12.4380    -2.2720   -32.9490 hc         1 JDO       0.047700
    111 H33        -12.6590    -0.8460   -33.9530 hc         1 JDO       0.047700
    112 H34        -15.6860    -3.0560   -35.0180 ha         1 JDO       0.171000
    113 H35        -13.8900    -2.9000   -35.4660 ha         1 JDO       0.171000
    114 H36        -15.1210    -1.0930   -30.4460 hc         1 JDO       0.063200
    115 H37        -14.1630    -2.4640   -30.9630 hc         1 JDO       0.063200
    116 H38        -16.9060    -0.0510   -32.1340 hc         1 JDO       0.057700
    117 H39        -16.8060    -0.4660   -33.8240 hc         1 JDO       0.057700
    118 H40        -14.8680     0.7370   -34.2500 hc         1 JDO       0.037700
    119 H41        -15.7680     1.7950   -33.2140 hc         1 JDO       0.037700
    120 H42        -13.1110     1.3040   -32.7820 hc         1 JDO       0.034700
    121 H43        -11.8950    -1.5350   -30.6210 hc         1 JDO       0.038200
    122 H44        -11.3360    -0.1530   -31.5270 hc         1 JDO       0.038200
    123 H45        -13.0390    -0.0510   -28.9580 hc         1 JDO       0.053700
    124 H46        -11.3390     0.3340   -29.1260 hc         1 JDO       0.053700
    125 H47        -11.8950     2.1270   -30.7810 hc         1 JDO       0.042700
    126 H48        -15.6490     2.3390   -29.4170 hc         1 JDO       0.040033
    127 H49        -16.1510     1.1900   -30.5830 hc         1 JDO       0.040033
    128 H50        -15.0890     0.6960   -29.2630 hc         1 JDO       0.040033
    129 H51        -13.4640     3.5410   -32.1560 hc         1 JDO       0.036700
    130 H52        -15.1880     3.4470   -31.8950 hc         1 JDO       0.036700
    131 H53        -14.1430     5.4360   -30.7750 hc         1 JDO       0.048200
    132 H54        -15.0100     4.4380   -29.6410 hc         1 JDO       0.048200
    133 H55        -11.9950     4.6200   -30.1130 hc         1 JDO       0.047700
    134 H56        -12.8370     5.0560   -28.6480 hc         1 JDO       0.047700
    135 H57        -10.8720     3.7610   -27.6630 hc         1 JDO       0.047033
    136 H58        -10.6810     2.0300   -27.8920 hc         1 JDO       0.047033
    137 H59        -10.3310     3.1310   -29.2220 hc         1 JDO       0.047033
    138 H60        -15.1420     2.2830   -25.7310 h2         1 JDO       0.079700
    139 H61        -17.4380     2.5390   -24.8730 h1         1 JDO       0.063700
    140 H62        -19.0890     4.6060   -26.4200 h1         1 JDO       0.047700
    141 H63        -19.6710     3.6250   -25.0700 h1         1 JDO       0.047700
    142 H64        -20.1080     2.9470   -27.4040 ho         1 JDO       0.515000
    143 H65        -17.2270     5.6060   -25.0330 h1         1 JDO       0.057700
    144 H66        -17.3760     5.2320   -22.6470 ho         1 JDO       0.528000
    145 H67        -15.5480     3.5460   -23.5180 h1         1 JDO       0.051700
    146 H68        -14.3610     5.3510   -22.7930 ho         1 JDO       0.530000
    147 H69        -14.8360     5.3430   -25.9030 h1         1 JDO       0.084700
    148 H70        -13.3000     6.2940   -24.6220 h2         1 JDO       0.043700
    149 H71        -11.6310     7.7530   -25.5450 h1         1 JDO       0.061700
    150 H72         -9.2460     6.2880   -26.8010 h1         1 JDO       0.037700
    151 H73         -9.4350     8.0430   -26.6880 h1         1 JDO       0.037700
    152 H74        -10.0280     7.2070   -28.7740 ho         1 JDO       0.505000
    153 H75         -9.3970     6.0620   -24.2700 h1         1 JDO       0.056700
    154 H76         -9.1980     8.1150   -23.0180 ho         1 JDO       0.526000
    155 H77        -11.8100     7.4510   -22.9840 h1         1 JDO       0.054700
    156 H78        -11.0200     6.3670   -21.0930 ho         1 JDO       0.464000
    157 H79        -11.1700     4.4790   -23.3720 h1         1 JDO       0.076700
    158 H80        -12.4420     4.3120   -21.6640 ho         1 JDO       0.522000
@<TRIPOS>BOND
     1     1     2 1   
     2     1    79 1   
     3     2     3 1   
     4     2    11 1   
     5     2    80 1   
     6     3     4 1   
     7     3     5 1   
     8     3    81 1   
     9     4    82 1   
    10     5     6 1   
    11     5     7 1   
    12     5    83 1   
    13     6    84 1   
    14     7     8 1   
    15     7    10 1   
    16     7    85 1   
    17     8     9 1   
    18     8    86 1   
    19     8    87 1   
    20     9    88 1   
    21    10    11 1   
    22    11    12 1   
    23    11    89 1   
    24    12    13 1   
    25    13    14 1   
    26    13    33 1   
    27    13    90 1   
    28    14    15 1   
    29    14    27 1   
    30    14    91 1   
    31    15    16 1   
    32    16    17 1   
    33    16    25 1   
    34    16    92 1   
    35    17    18 1   
    36    18    19 1   
    37    18    21 1   
    38    18    93 1   
    39    19    20 1   
    40    19    94 1   
    41    19    95 1   
    42    20    96 1   
    43    21    22 1   
    44    21    23 1   
    45    21    97 1   
    46    22    98 1   
    47    23    24 1   
    48    23    25 1   
    49    23    99 1   
    50    24   100 1   
    51    25    26 1   
    52    25   101 1   
    53    26   102 1   
    54    27    28 1   
    55    27    29 1   
    56    27   103 1   
    57    28   104 1   
    58    29    30 1   
    59    29    32 1   
    60    29   105 1   
    61    30    31 1   
    62    30   106 1   
    63    30   107 1   
    64    31   108 1   
    65    32    33 1   
    66    33    34 1   
    67    33   109 1   
    68    34    35 1   
    69    35    36 1   
    70    35    39 1   
    71    35    40 1   
    72    36    37 1   
    73    36    38 2   
    74    37    43 1   
    75    37   110 1   
    76    37   111 1   
    77    38   112 1   
    78    38   113 1   
    79    39    43 1   
    80    39   114 1   
    81    39   115 1   
    82    40    41 1   
    83    40   116 1   
    84    40   117 1   
    85    41    42 1   
    86    41   118 1   
    87    41   119 1   
    88    42    43 1   
    89    42    47 1   
    90    42   120 1   
    91    43    44 1   
    92    44    45 1   
    93    44   121 1   
    94    44   122 1   
    95    45    46 1   
    96    45   123 1   
    97    45   124 1   
    98    46    47 1   
    99    46    52 1   
   100    46   125 1   
   101    47    48 1   
   102    47    49 1   
   103    48   126 1   
   104    48   127 1   
   105    48   128 1   
   106    49    50 1   
   107    49   129 1   
   108    49   130 1   
   109    50    51 1   
   110    50   131 1   
   111    50   132 1   
   112    51    52 1   
   113    51   133 1   
   114    51   134 1   
   115    52    53 1   
   116    52    54 1   
   117    53   135 1   
   118    53   136 1   
   119    53   137 1   
   120    54    55 2   
   121    54    56 1   
   122    56    57 1   
   123    57    58 1   
   124    57    66 1   
   125    57   138 1   
   126    58    59 1   
   127    59    60 1   
   128    59    62 1   
   129    59   139 1   
   130    60    61 1   
   131    60   140 1   
   132    60   141 1   
   133    61   142 1   
   134    62    63 1   
   135    62    64 1   
   136    62   143 1   
   137    63   144 1   
   138    64    65 1   
   139    64    66 1   
   140    64   145 1   
   141    65   146 1   
   142    66    67 1   
   143    66   147 1   
   144    67    68 1   
   145    68    69 1   
   146    68    77 1   
   147    68   148 1   
   148    69    70 1   
   149    70    71 1   
   150    70    73 1   
   151    70   149 1   
   152    71    72 1   
   153    71   150 1   
   154    71   151 1   
   155    72   152 1   
   156    73    74 1   
   157    73    75 1   
   158    73   153 1   
   159    74   154 1   
   160    75    76 1   
   161    75    77 1   
   162    75   155 1   
   163    76   156 1   
   164    77    78 1   
   165    77   157 1   
   166    78   158 1   
@<TRIPOS>SUBSTRUCTURE
     1 JDO         1 TEMP              0 ****  ****    0 ROOT
