@<TRIPOS>MOLECULE
JDP
   54    58     1     0     0
SMALL
bcc


@<TRIPOS>ATOM
      1 C22         -2.3610     4.0990    -0.1810 ca         1 JDP      -0.125500
      2 C21         -2.7480     3.8710     1.1340 ca         1 JDP      -0.127000
      3 O01          5.6860     1.5450     0.5920 o          1 JDP      -0.605100
      4 C03          3.4210     2.1620     0.2380 ca         1 JDP      -0.116600
      5 C04          2.5120     3.1900     0.4480 ca         1 JDP      -0.125000
      6 C05          1.1390     2.9460     0.4890 ca         1 JDP      -0.140000
      7 C06          0.6260     1.6730     0.3070 ca         1 JDP      -0.095000
      8 C07          1.5300     0.6410     0.0880 ca         1 JDP      -0.030200
      9 C08          2.9250     0.8580     0.0750 ca         1 JDP      -0.039800
     10 C09          3.5350    -0.4160    -0.1400 cc         1 JDP      -0.174200
     11 C10          2.5470    -1.3470    -0.2340 cd         1 JDP      -0.019300
     12 C11          2.7150    -2.7990    -0.5070 c3         1 JDP      -0.032900
     13 N12          1.3180    -0.7170    -0.0950 na         1 JDP      -0.104200
     14 C13          0.0670    -1.3510    -0.1110 ca         1 JDP       0.812500
     15 N14         -0.9090    -0.6900    -0.7040 nb         1 JDP      -0.799000
     16 C15         -2.1060    -1.2740    -0.7280 ca         1 JDP       0.747200
     17 N16         -3.1190    -0.6000    -1.2970 nu         1 JDP      -0.874900
     18 C17         -2.9890     0.7380    -1.8150 c3         1 JDP       0.279100
     19 C18         -2.9140     1.8190    -0.7600 ca         1 JDP      -0.100300
     20 C19         -3.3100     1.6010     0.5540 ca         1 JDP      -0.121000
     21 C20         -3.2220     2.6190     1.4960 ca         1 JDP      -0.125500
     22 C23         -2.4410     3.0790    -1.1170 ca         1 JDP      -0.121000
     23 C24         -2.2940    -2.5680    -0.1910 ca         1 JDP      -0.448900
     24 C25         -3.6170    -3.2790    -0.2460 c6         1 JDP       0.202700
     25 O26         -3.5130    -4.6350     0.0940 os         1 JDP      -0.393600
     26 C27         -2.7750    -4.8360     1.2820 c6         1 JDP       0.130400
     27 C28         -1.3150    -4.4820     1.0600 c6         1 JDP      -0.171700
     28 C29         -1.1970    -3.1370     0.4130 ca         1 JDP       0.512600
     29 N30         -0.0050    -2.5240     0.4720 nb         1 JDP      -0.760000
     30 N31          5.2850     3.6210    -0.1840 nt         1 JDP      -0.676000
     31 H1          -1.9860     5.0710    -0.4770 ha         1 JDP       0.132000
     32 H2          -2.6770     4.6620     1.8690 ha         1 JDP       0.133000
     33 H3           2.8600     4.2020     0.6110 ha         1 JDP       0.124000
     34 H4           0.4570     3.7660     0.6650 ha         1 JDP       0.130000
     35 H5          -0.4410     1.5090     0.3220 ha         1 JDP       0.157000
     36 H6           4.5860    -0.6290    -0.2330 ha         1 JDP       0.175000
     37 H7           2.4420    -3.4130     0.3490 hc         1 JDP       0.053700
     38 H8           2.1050    -3.1300    -1.3480 hc         1 JDP       0.053700
     39 H9           3.7580    -2.9890    -0.7510 hc         1 JDP       0.053700
     40 H10         -4.0390    -1.0050    -1.2930 hn         1 JDP       0.444800
     41 H11         -2.1070     0.8000    -2.4550 h1         1 JDP       0.065700
     42 H12         -3.8530     0.9110    -2.4580 h1         1 JDP       0.065700
     43 H13         -3.6790     0.6290     0.8570 ha         1 JDP       0.129500
     44 H14         -3.5250     2.4280     2.5180 ha         1 JDP       0.132000
     45 H15         -2.1200     3.2630    -2.1360 ha         1 JDP       0.129500
     46 H16         -4.3390    -2.7650     0.4100 h1         1 JDP       0.045200
     47 H17         -4.0280    -3.2430    -1.2600 h1         1 JDP       0.045200
     48 H18         -3.1880    -4.2340     2.1020 h1         1 JDP       0.053700
     49 H19         -2.8850    -5.8860     1.5550 h1         1 JDP       0.053700
     50 H20         -0.7730    -4.4780     2.0070 hc         1 JDP       0.079200
     51 H21         -0.8300    -5.2290     0.4250 hc         1 JDP       0.079200
     52 H22          6.2660     3.8460    -0.2120 hn         1 JDP       0.311000
     53 H23          4.6520     4.2790    -0.6020 hn         1 JDP       0.311000
     54 C02          4.8920     2.4050     0.2320 c          1 JDP       0.687700
@<TRIPOS>BOND
     1     1     2 ar  
     2     1    22 ar  
     3     1    31 1   
     4     2    21 ar  
     5     2    32 1   
     6     3    54 2   
     7     4     5 ar  
     8     4     9 ar  
     9     4    54 1   
    10     5     6 ar  
    11     5    33 1   
    12     6     7 ar  
    13     6    34 1   
    14     7     8 ar  
    15     7    35 1   
    16     8     9 ar  
    17     8    13 1   
    18     9    10 1   
    19    10    11 2   
    20    10    36 1   
    21    11    12 1   
    22    11    13 1   
    23    12    37 1   
    24    12    38 1   
    25    12    39 1   
    26    13    14 1   
    27    14    15 ar  
    28    14    29 ar  
    29    15    16 ar  
    30    16    17 1   
    31    16    23 ar  
    32    17    18 1   
    33    17    40 1   
    34    18    19 1   
    35    18    41 1   
    36    18    42 1   
    37    19    20 ar  
    38    19    22 ar  
    39    20    21 ar  
    40    20    43 1   
    41    21    44 1   
    42    22    45 1   
    43    23    24 1   
    44    23    28 ar  
    45    24    25 1   
    46    24    46 1   
    47    24    47 1   
    48    25    26 1   
    49    26    27 1   
    50    26    48 1   
    51    26    49 1   
    52    27    28 1   
    53    27    50 1   
    54    27    51 1   
    55    28    29 ar  
    56    30    52 1   
    57    30    53 1   
    58    30    54 1   
@<TRIPOS>SUBSTRUCTURE
     1 JDP         1 TEMP              0 ****  ****    0 ROOT
