@<TRIPOS>MOLECULE
JDP
   54    58     1     0     0
SMALL
No Charge or Current Charge


@<TRIPOS>ATOM
      1 C22         -1.0010     3.3040    -0.4080 ca         1 JDP      -0.107500
      2 C21         -2.0590     3.7540     0.3980 ca         1 JDP      -0.109000
      3 O01          4.8010     2.4410    -1.3280 o          1 JDP      -0.605100
      4 C03          3.0350     2.3700     0.3280 ca         1 JDP      -0.116600
      5 C04          2.3280     3.0890     1.3330 ca         1 JDP      -0.107000
      6 C05          1.2830     2.4850     2.0690 ca         1 JDP      -0.122000
      7 C06          0.9160     1.1490     1.8230 ca         1 JDP      -0.077000
      8 C07          1.6180     0.4480     0.8350 ca         1 JDP      -0.030200
      9 C08          2.6350     1.0280     0.1190 ca         1 JDP      -0.039800
     10 C09          3.0950     0.0260    -0.8100 cc         1 JDP      -0.224200
     11 C10          2.3150    -1.1110    -0.6360 cd         1 JDP      -0.019300
     12 C11          2.3580    -2.3910    -1.4350 c3         1 JDP      -0.032900
     13 N12          1.4330    -0.8690     0.4440 na         1 JDP      -0.104200
     14 C13          0.1880    -1.4810     0.3140 ca         1 JDP       0.286500
     15 N14         -0.7180    -0.9450    -0.5350 nb         1 JDP      -0.273000
     16 C15         -1.9290    -1.5090    -0.6450 ca         1 JDP       0.418900
     17 N16         -2.8340    -0.8930    -1.5040 nu         1 JDP      -0.930100
     18 C17         -2.6370     0.3600    -2.2620 c3         1 JDP       0.279100
     19 C18         -2.4360     1.5550    -1.3290 ca         1 JDP      -0.100300
     20 C19         -3.4950     2.0140    -0.5190 ca         1 JDP      -0.103000
     21 C20         -3.3060     3.1090     0.3420 ca         1 JDP      -0.107500
     22 C23         -1.1880     2.2080    -1.2680 ca         1 JDP      -0.103000
     23 C24         -2.2700    -2.6540     0.0820 ca         1 JDP      -0.318300
     24 C25         -3.6460    -3.3220    -0.0100 c6         1 JDP       0.225900
     25 O26         -3.5810    -4.6670     0.5110 os         1 JDP      -0.440000
     26 C27         -3.0230    -4.7660     1.8350 c6         1 JDP       0.153600
     27 C28         -1.5280    -4.4000     1.7890 c6         1 JDP      -0.171700
     28 C29         -1.2840    -3.1600     0.9400 ca         1 JDP       0.184300
     29 N30         -0.0750    -2.5830     1.0540 nb         1 JDP      -0.234000
     30 N31          4.4490     4.3130    -0.2110 nt         1 JDP      -0.609000
     31 H1          -0.0340     3.8010    -0.3650 ha         1 JDP       0.114000
     32 H2          -1.9130     4.6010     1.0660 ha         1 JDP       0.115000
     33 H3           2.5750     4.1230     1.5580 ha         1 JDP       0.106000
     34 H4           0.7560     3.0570     2.8290 ha         1 JDP       0.112000
     35 H5           0.1120     0.6770     2.3830 ha         1 JDP       0.139000
     36 H6           3.8640     0.1320    -1.5690 ha         1 JDP       0.225000
     37 H7           2.3120    -3.2690    -0.7800 hc         1 JDP       0.053700
     38 H8           1.5170    -2.4470    -2.1360 hc         1 JDP       0.053700
     39 H9           3.2840    -2.4610    -2.0190 hc         1 JDP       0.053700
     40 H10         -3.7580    -1.3160    -1.5540 hn         1 JDP       0.500000
     41 H11         -1.7690     0.2630    -2.9300 h1         1 JDP       0.065700
     42 H12         -3.5120     0.5550    -2.8980 h1         1 JDP       0.065700
     43 H13         -4.4620     1.5180    -0.5550 ha         1 JDP       0.111500
     44 H14         -4.1260     3.4570     0.9670 ha         1 JDP       0.114000
     45 H15         -0.3580     1.8620    -1.8800 ha         1 JDP       0.111500
     46 H16         -4.3820    -2.7440     0.5680 h1         1 JDP       0.045200
     47 H17         -3.9830    -3.3700    -1.0550 h1         1 JDP       0.045200
     48 H18         -3.5640    -4.0830     2.5070 h1         1 JDP       0.053700
     49 H19         -3.1510    -5.7910     2.2100 h1         1 JDP       0.053700
     50 H20         -1.1540    -4.2470     2.8100 hc         1 JDP       0.079200
     51 H21         -0.9610    -5.2410     1.3690 hc         1 JDP       0.079200
     52 H22          5.1900     4.7600    -0.7300 hn         1 JDP       0.311000
     53 H23          3.9350     4.8200     0.4910 hn         1 JDP       0.311000
     54 C02          4.1540     3.0190    -0.4710 c          1 JDP       0.620700
@<TRIPOS>BOND
     1     1     2 ar  
     2     1    22 ar  
     3     1    31 1   
     4     2    21 ar  
     5     2    32 1   
     6     3    54 2   
     7     4     5 ar  
     8     4     9 ar  
     9     4    54 1   
    10     5     6 ar  
    11     5    33 1   
    12     6     7 ar  
    13     6    34 1   
    14     7     8 ar  
    15     7    35 1   
    16     8     9 ar  
    17     8    13 1   
    18     9    10 1   
    19    10    11 2   
    20    10    36 1   
    21    11    12 1   
    22    11    13 1   
    23    12    37 1   
    24    12    38 1   
    25    12    39 1   
    26    13    14 1   
    27    14    15 ar  
    28    14    29 ar  
    29    15    16 ar  
    30    16    17 1   
    31    16    23 ar  
    32    17    18 1   
    33    17    40 1   
    34    18    19 1   
    35    18    41 1   
    36    18    42 1   
    37    19    20 ar  
    38    19    22 ar  
    39    20    21 ar  
    40    20    43 1   
    41    21    44 1   
    42    22    45 1   
    43    23    24 1   
    44    23    28 ar  
    45    24    25 1   
    46    24    46 1   
    47    24    47 1   
    48    25    26 1   
    49    26    27 1   
    50    26    48 1   
    51    26    49 1   
    52    27    28 1   
    53    27    50 1   
    54    27    51 1   
    55    28    29 ar  
    56    30    52 1   
    57    30    53 1   
    58    30    54 1   
@<TRIPOS>SUBSTRUCTURE
     1 JDP         1 TEMP              0 ****  ****    0 ROOT
