@<TRIPOS>MOLECULE
JDQ
   38    41     1     0     0
SMALL
No Charge or Current Charge


@<TRIPOS>ATOM
      1 C10         -0.5620     2.7620     0.1750 ca         1 JDQ      -0.092800
      2 C15         -2.8700    -0.8950    -0.6170 ca         1 JDQ      -0.114300
      3 C17         -2.8440    -3.3060    -0.2200 ca         1 JDQ      -0.109500
      4 C20         -3.3710    -0.7000     0.6880 ca         1 JDQ      -0.092500
      5 C21         -2.7520     2.6900    -0.6060 cc         1 JDQ      -0.161100
      6 C22         -1.8080     3.4730     0.0460 cd         1 JDQ      -0.241200
      7 C02          4.5950    -1.0820     0.4450 cc         1 JDQ       0.206000
      8 N03          3.7630    -1.8300    -0.3710 na         1 JDQ      -0.039200
      9 N04          2.5350    -1.2210    -0.6020 nc         1 JDQ      -0.528800
     10 C05          2.6290    -0.0880     0.0840 cd         1 JDQ       0.341500
     11 C06          3.8790     0.0270     0.7390 cd         1 JDQ      -0.278000
     12 C07          1.5180     0.8940     0.1230 ca         1 JDQ      -0.108500
     13 C08          1.7050     2.1770     0.7150 ca         1 JDQ      -0.122000
     14 C09          0.6590     3.1240     0.7490 ca         1 JDQ      -0.072000
     15 C11         -0.7630     1.5440    -0.4070 ca         1 JDQ      -0.050200
     16 C12          0.2570     0.5800    -0.4540 ca         1 JDQ      -0.090000
     17 N13         -2.0700     1.4870    -0.8840 na         1 JDQ      -0.089700
     18 C14         -2.6130     0.2880    -1.5500 c3         1 JDQ       0.126900
     19 C16         -2.6130    -2.2060    -1.0650 ca         1 JDQ      -0.092500
     20 C18         -3.3380    -3.1040     1.0790 ca         1 JDQ      -0.102000
     21 C19         -3.6020    -1.8010     1.5320 ca         1 JDQ      -0.109500
     22 H1          -2.6400    -4.3140    -0.5730 ha         1 JDQ       0.113500
     23 H2          -3.5840     0.3020     1.0520 ha         1 JDQ       0.115500
     24 H3          -3.7870     2.8740    -0.8790 h4         1 JDQ       0.209000
     25 H4          -1.9920     4.4810     0.4110 ha         1 JDQ       0.204000
     26 H5           6.4420    -0.8200     1.3440 hn         1 JDQ       0.449000
     27 H6           6.2900    -2.2880     0.4150 hn         1 JDQ       0.449000
     28 H7           3.9910    -2.7340    -0.7740 hn         1 JDQ       0.366000
     29 H8           4.2100     0.8440     1.3670 ha         1 JDQ       0.145000
     30 H9           2.6610     2.4500     1.1510 ha         1 JDQ       0.110000
     31 H10          0.7990     4.1020     1.2040 ha         1 JDQ       0.112000
     32 H11          0.0770    -0.3860    -0.9170 ha         1 JDQ       0.133000
     33 H12         -1.9140    -0.0090    -2.3420 h1         1 JDQ       0.061700
     34 H13         -3.5570     0.5630    -2.0380 h1         1 JDQ       0.061700
     35 H14         -2.2300    -2.3760    -2.0700 ha         1 JDQ       0.115500
     36 H15         -3.5160    -3.9550     1.7330 ha         1 JDQ       0.113000
     37 H16         -3.9860    -1.6420     2.5370 ha         1 JDQ       0.113500
     38 N01          5.8480    -1.4640     0.8210 nv         1 JDQ      -1.050000
@<TRIPOS>BOND
     1     1     6 1   
     2     1    14 ar  
     3     1    15 ar  
     4     2     4 ar  
     5     2    18 1   
     6     2    19 ar  
     7     3    19 ar  
     8     3    20 ar  
     9     3    22 1   
    10     4    21 ar  
    11     4    23 1   
    12     5     6 2   
    13     5    17 1   
    14     5    24 1   
    15     6    25 1   
    16     7     8 1   
    17     7    11 2   
    18     7    38 1   
    19     8     9 1   
    20     8    28 1   
    21     9    10 2   
    22    10    11 1   
    23    10    12 1   
    24    11    29 1   
    25    12    13 ar  
    26    12    16 ar  
    27    13    14 ar  
    28    13    30 1   
    29    14    31 1   
    30    15    16 ar  
    31    15    17 1   
    32    16    32 1   
    33    17    18 1   
    34    18    33 1   
    35    18    34 1   
    36    19    35 1   
    37    20    21 ar  
    38    20    36 1   
    39    21    37 1   
    40    26    38 1   
    41    27    38 1   
@<TRIPOS>SUBSTRUCTURE
     1 JDQ         1 TEMP              0 ****  ****    0 ROOT
