@<TRIPOS>MOLECULE
JDQ
   38    41     1     0     0
SMALL
bcc


@<TRIPOS>ATOM
      1 C10         -0.5990     2.7720     0.2180 ca         1 JDQ      -0.092800
      2 C15         -2.8150    -0.8760    -0.6370 ca         1 JDQ      -0.114300
      3 C17         -2.7920    -3.2580    -0.2370 ca         1 JDQ      -0.127500
      4 C20         -3.3150    -0.6820     0.6480 ca         1 JDQ      -0.110500
      5 C21         -2.6610     2.6150    -0.6370 cc         1 JDQ      -0.111100
      6 C22         -1.8370     3.4620     0.0460 cd         1 JDQ      -0.191200
      7 C02          4.5360    -1.0900     0.4520 cc         1 JDQ       0.118300
      8 N03          3.6290    -1.8800    -0.1520 na         1 JDQ      -0.039600
      9 N04          2.4390    -1.2840    -0.3220 nc         1 JDQ      -0.528800
     10 C05          2.5870    -0.0770     0.1920 cd         1 JDQ       0.406800
     11 C06          3.8930     0.1090     0.6980 cd         1 JDQ      -0.361300
     12 C07          1.4800     0.8860     0.1880 ca         1 JDQ      -0.108500
     13 C08          1.6400     2.1490     0.7980 ca         1 JDQ      -0.140000
     14 C09          0.6260     3.0820     0.8180 ca         1 JDQ      -0.090000
     15 C11         -0.7490     1.5050    -0.3900 ca         1 JDQ      -0.050200
     16 C12          0.2700     0.5600    -0.4120 ca         1 JDQ      -0.108000
     17 N13         -2.0130     1.4390    -0.9090 na         1 JDQ      -0.060400
     18 C14         -2.5860     0.2910    -1.5670 c3         1 JDQ       0.097600
     19 C16         -2.5510    -2.1710    -1.0690 ca         1 JDQ      -0.110500
     20 C18         -3.2930    -3.0580     1.0410 ca         1 JDQ      -0.120000
     21 C19         -3.5530    -1.7650     1.4820 ca         1 JDQ      -0.127500
     22 H1          -2.5810    -4.2600    -0.5880 ha         1 JDQ       0.131500
     23 H2          -3.5200     0.3200     1.0060 ha         1 JDQ       0.133500
     24 H3          -3.6790     2.7600    -0.9640 h4         1 JDQ       0.159000
     25 H4          -2.0850     4.4560     0.3810 ha         1 JDQ       0.154000
     26 H5           6.4500    -0.7740     0.9420 hn         1 JDQ       0.393800
     27 H6           6.1920    -2.2090     0.1530 hn         1 JDQ       0.393800
     28 H7           3.7620    -2.8270    -0.4660 hn         1 JDQ       0.315700
     29 H8           4.3200     0.9800     1.1660 ha         1 JDQ       0.163000
     30 H9           2.5840     2.3960     1.2670 ha         1 JDQ       0.128000
     31 H10          0.7800     4.0430     1.2940 ha         1 JDQ       0.130000
     32 H11          0.1360    -0.4070    -0.8790 ha         1 JDQ       0.151000
     33 H12         -1.9430    -0.0140    -2.3960 h1         1 JDQ       0.061700
     34 H13         -3.5310     0.6080    -2.0100 h1         1 JDQ       0.061700
     35 H14         -2.1520    -2.3360    -2.0630 ha         1 JDQ       0.133500
     36 H15         -3.4770    -3.9020     1.6920 ha         1 JDQ       0.131000
     37 H16         -3.9420    -1.5990     2.4780 ha         1 JDQ       0.131500
     38 N01          5.7960    -1.5240     0.7790 nv         1 JDQ      -0.801200
@<TRIPOS>BOND
     1     1     6 1   
     2     1    14 ar  
     3     1    15 ar  
     4     2     4 ar  
     5     2    18 1   
     6     2    19 ar  
     7     3    19 ar  
     8     3    20 ar  
     9     3    22 1   
    10     4    21 ar  
    11     4    23 1   
    12     5     6 2   
    13     5    17 1   
    14     5    24 1   
    15     6    25 1   
    16     7     8 1   
    17     7    11 2   
    18     7    38 1   
    19     8     9 1   
    20     8    28 1   
    21     9    10 2   
    22    10    11 1   
    23    10    12 1   
    24    11    29 1   
    25    12    13 ar  
    26    12    16 ar  
    27    13    14 ar  
    28    13    30 1   
    29    14    31 1   
    30    15    16 ar  
    31    15    17 1   
    32    16    32 1   
    33    17    18 1   
    34    18    33 1   
    35    18    34 1   
    36    19    35 1   
    37    20    21 ar  
    38    20    36 1   
    39    21    37 1   
    40    26    38 1   
    41    27    38 1   
@<TRIPOS>SUBSTRUCTURE
     1 JDQ         1 TEMP              0 ****  ****    0 ROOT
