@<TRIPOS>MOLECULE
JDR
   36    37     1     0     0
SMALL
No Charge or Current Charge


@<TRIPOS>ATOM
      1 N1          -3.2490    -0.8290    -0.8330 nb         1 JDR      -0.246000
      2 C2          -2.4580    -1.3480     0.1220 ca         1 JDR       0.304300
      3 N3          -1.6600    -0.6460     0.9410 nb         1 JDR      -0.264000
      4 C4          -1.6460     0.6880     0.7960 ca         1 JDR       0.431900
      5 C5          -2.4370     1.3370    -0.1620 ca         1 JDR      -0.383600
      6 C6          -3.2400     0.5070    -0.9750 ca         1 JDR       0.302000
      7 N7          -0.8110     1.3850     1.6640 nu         1 JDR      -0.919100
      8 C8           1.4230     0.3110     1.5680 ca         1 JDR      -0.036300
      9 C9           1.6300    -1.0720     1.4020 ca         1 JDR      -0.124000
     10 C10          2.6610    -1.5460     0.5710 ca         1 JDR      -0.004500
     11 C11          3.5000    -0.6340    -0.1000 ca         1 JDR      -0.271500
     12 C12          3.2960     0.7510     0.0610 ca         1 JDR      -0.004500
     13 C13          2.2630     1.2180     0.8920 ca         1 JDR      -0.124000
     14 S14          4.8190    -1.2350    -1.1610 sy         1 JDR       1.124600
     15 O15          5.8350    -0.2040    -1.3670 o          1 JDR      -0.544000
     16 O16          5.1650    -2.6160    -0.8340 o          1 JDR      -0.544000
     17 N17          4.0960    -1.3550    -2.6170 n8         1 JDR      -0.997100
     18 C18         -2.3970     2.8260    -0.3080 c          1 JDR       0.604500
     19 O19         -3.2870     3.4940    -0.8170 o          1 JDR      -0.503100
     20 Cl20        -4.2640     1.1020    -2.2810 cl         1 JDR      -0.117000
     21 S21         -2.4450    -3.1260     0.3390 ss         1 JDR      -0.277300
     22 C22         -3.6050    -3.7580    -0.9580 c3         1 JDR       0.018900
     23 C23          0.2990     0.8260     2.4660 c3         1 JDR       0.270100
     24 HN7         -0.8710     2.4010     1.6330 hn         1 JDR       0.507000
     25 H9           0.9870    -1.7850     1.9120 ha         1 JDR       0.118500
     26 H10          2.8010    -2.6190     0.4530 ha         1 JDR       0.138000
     27 H12          3.9330     1.4690    -0.4550 ha         1 JDR       0.138000
     28 H13          2.1120     2.2890     1.0090 ha         1 JDR       0.118500
     29 HN17         4.7460    -0.8230    -3.1910 hn         1 JDR       0.472000
     30 HN1A         4.3320    -2.3140    -2.8610 hn         1 JDR       0.472000
     31 H18         -1.5030     3.3350     0.1130 h4         1 JDR      -0.031800
     32 H22         -3.6600    -4.8520    -0.9030 h1         1 JDR       0.075700
     33 H22A        -4.6080    -3.3410    -0.7980 h1         1 JDR       0.075700
     34 H22B        -3.2470    -3.4670    -1.9540 h1         1 JDR       0.075700
     35 H23          0.7100     1.5990     3.1310 h1         1 JDR       0.071700
     36 H23A        -0.0650     0.0120     3.1100 h1         1 JDR       0.071700
@<TRIPOS>BOND
     1     1     2 ar  
     2     1     6 ar  
     3     2     3 ar  
     4     2    21 1   
     5     3     4 ar  
     6     4     5 ar  
     7     4     7 1   
     8     5     6 ar  
     9     5    18 1   
    10     6    20 1   
    11     7    23 1   
    12     7    24 1   
    13     8     9 ar  
    14     8    13 ar  
    15     8    23 1   
    16     9    10 ar  
    17     9    25 1   
    18    10    11 ar  
    19    10    26 1   
    20    11    12 ar  
    21    11    14 1   
    22    12    13 ar  
    23    12    27 1   
    24    13    28 1   
    25    14    15 2   
    26    14    16 2   
    27    14    17 1   
    28    17    29 1   
    29    17    30 1   
    30    18    19 2   
    31    18    31 1   
    32    21    22 1   
    33    22    32 1   
    34    22    33 1   
    35    22    34 1   
    36    23    35 1   
    37    23    36 1   
@<TRIPOS>SUBSTRUCTURE
     1 JDR         1 TEMP              0 ****  ****    0 ROOT
