@<TRIPOS>MOLECULE
JDR
   36    37     1     0     0
SMALL
abcg2


@<TRIPOS>ATOM
      1 N1          -3.4650    -0.4770    -0.8840 nb         1 JDR      -0.246000
      2 C2          -2.4690    -1.1030    -0.2670 ca         1 JDR       0.304300
      3 N3          -1.5770    -0.5640     0.5350 nb         1 JDR      -0.264000
      4 C4          -1.6590     0.7480     0.7640 ca         1 JDR       0.431900
      5 C5          -2.6770     1.5430     0.1430 ca         1 JDR      -0.383600
      6 C6          -3.5450     0.8150    -0.6670 ca         1 JDR       0.302000
      7 N7          -0.7450     1.2560     1.5950 nu         1 JDR      -0.919100
      8 C8           1.4440     0.0880     1.3670 ca         1 JDR      -0.036300
      9 C9           2.4020    -0.7770     1.8880 ca         1 JDR      -0.124000
     10 C10          3.5180    -1.1330     1.1510 ca         1 JDR      -0.004500
     11 C11          3.6670    -0.6230    -0.1320 ca         1 JDR      -0.271500
     12 C12          2.7250     0.2410    -0.6710 ca         1 JDR      -0.004500
     13 C13          1.6190     0.5960     0.0840 ca         1 JDR      -0.124000
     14 S14          5.0780    -1.0730    -1.0950 sy         1 JDR       1.124600
     15 O15          5.4200     0.0120    -2.0030 o          1 JDR      -0.544000
     16 O16          6.1040    -1.5590    -0.1820 o          1 JDR      -0.544000
     17 N17          4.4460    -2.2710    -2.0450 n8         1 JDR      -0.997100
     18 C18         -2.7400     2.9890     0.3520 c          1 JDR       0.604500
     19 O19         -3.5990     3.7340    -0.0610 o          1 JDR      -0.503100
     20 CL20        -4.8440     1.5770    -1.4960 cl         1 JDR      -0.117000
     21 S21         -2.2690    -2.8160    -0.5000 ss         1 JDR      -0.277300
     22 C22         -3.6310    -3.2310    -1.6070 c3         1 JDR       0.018900
     23 C23          0.2670     0.4550     2.2380 c3         1 JDR       0.270100
     24 HN7         -0.7720     2.2280     1.8450 hn         1 JDR       0.507000
     25 H9           2.2800    -1.1770     2.8870 ha         1 JDR       0.118500
     26 H10          4.2550    -1.7980     1.5790 ha         1 JDR       0.138000
     27 H12          2.8460     0.6440    -1.6670 ha         1 JDR       0.138000
     28 H13          0.8980     1.2810    -0.3420 ha         1 JDR       0.118500
     29 HN17         5.0400    -2.4570    -2.8490 hn         1 JDR       0.472000
     30 HN1A         4.2840    -3.1300    -1.5310 hn         1 JDR       0.472000
     31 H18         -1.9060     3.4100     0.9350 h4         1 JDR      -0.031800
     32 H22         -3.5410    -4.2990    -1.7990 h1         1 JDR       0.075700
     33 H22A        -4.5910    -3.0300    -1.1400 h1         1 JDR       0.075700
     34 H22B        -3.5520    -2.6920    -2.5470 h1         1 JDR       0.075700
     35 H23          0.6250     1.0260     3.0960 h1         1 JDR       0.071700
     36 H23A        -0.1810    -0.4560     2.6350 h1         1 JDR       0.071700
@<TRIPOS>BOND
     1     1     2 ar  
     2     1     6 ar  
     3     2     3 ar  
     4     2    21 1   
     5     3     4 ar  
     6     4     5 ar  
     7     4     7 1   
     8     5     6 ar  
     9     5    18 1   
    10     6    20 1   
    11     7    23 1   
    12     7    24 1   
    13     8     9 ar  
    14     8    13 ar  
    15     8    23 1   
    16     9    10 ar  
    17     9    25 1   
    18    10    11 ar  
    19    10    26 1   
    20    11    12 ar  
    21    11    14 1   
    22    12    13 ar  
    23    12    27 1   
    24    13    28 1   
    25    14    15 2   
    26    14    16 2   
    27    14    17 1   
    28    17    29 1   
    29    17    30 1   
    30    18    19 2   
    31    18    31 1   
    32    21    22 1   
    33    22    32 1   
    34    22    33 1   
    35    22    34 1   
    36    23    35 1   
    37    23    36 1   
@<TRIPOS>SUBSTRUCTURE
     1 JDR         1 TEMP              0 ****  ****    0 ROOT
