@<TRIPOS>MOLECULE
JDS
   55    58     1     0     0
SMALL
abcg2


@<TRIPOS>ATOM
      1 CL1          3.3750    -4.7540    -0.2720 cl         1 JDS      -0.202000
      2 C01          4.8290     1.6500     0.6690 ca         1 JDS       0.391300
      3 N01          5.4920     0.5640     0.9850 nb         1 JDS      -0.683000
      4 O01         -6.3270    -2.4770    -0.9680 oh         1 JDS      -0.480000
      5 C02          5.4680     2.9510     1.0750 c6         1 JDS      -0.133700
      6 O02         -7.8790     1.3080     1.3470 oh         1 JDS      -0.529100
      7 C03          5.0280     4.1270     0.2180 c6         1 JDS      -0.074400
      8 N03         -4.9750    -0.0900    -0.3340 nb         1 JDS      -0.617000
      9 C04          3.5100     4.1770     0.1770 c6         1 JDS      -0.078400
     10 N04         -6.7920    -2.4180     0.3010 n2         1 JDS      -0.307700
     11 C05          2.9390     2.9250    -0.4760 c6         1 JDS      -0.018100
     12 C06          3.5890     1.6390    -0.0240 ca         1 JDS      -0.120300
     13 C07          4.9780    -0.6370     0.6550 ca         1 JDS       0.285000
     14 C08          3.7430    -0.7750    -0.0200 ca         1 JDS      -0.109000
     15 C09          3.0490     0.4170    -0.3790 ca         1 JDS       0.286000
     16 C10          5.7050    -1.7990     1.0030 ca         1 JDS      -0.074000
     17 C11          5.2250    -3.0440     0.7120 ca         1 JDS      -0.098000
     18 C12          3.9820    -3.1650     0.0640 ca         1 JDS       0.119000
     19 C13          3.2500    -2.0700    -0.2970 ca         1 JDS      -0.093000
     20 C14          0.6120     0.5160    -0.3480 c3         1 JDS       0.179800
     21 C15         -0.5740     0.6370    -1.2880 c3         1 JDS      -0.082400
     22 C16         -1.8920     0.7860    -0.5410 c3         1 JDS      -0.073400
     23 C17         -3.0860     0.8730    -1.4910 c3         1 JDS      -0.119700
     24 C18         -4.3860     1.0160    -0.7540 ca         1 JDS       0.320300
     25 C19         -4.9310     2.2720    -0.4790 ca         1 JDS      -0.115000
     26 C20         -6.1080     2.3610     0.2330 ca         1 JDS      -0.115000
     27 C21         -6.7260     1.1920     0.6650 ca         1 JDS       0.109100
     28 C22         -6.1100    -0.0280     0.3590 ca         1 JDS       0.210700
     29 C23         -6.6970    -1.2820     0.8650 ce         1 JDS       0.292200
     30 H1          -6.5130    -3.3830    -1.2400 ho         1 JDS       0.464000
     31 H2           5.2010     3.1500     2.1190 hc         1 JDS       0.063200
     32 H3           6.5520     2.8240     1.0570 hc         1 JDS       0.063200
     33 H4           1.8040    -0.4730    -1.6710 hn         1 JDS       0.436000
     34 H5          -8.3160     0.4590     1.4690 ho         1 JDS       0.473000
     35 H6           5.4390     5.0530     0.6220 hc         1 JDS       0.046700
     36 H7           5.4230     4.0210    -0.7970 hc         1 JDS       0.046700
     37 H8           3.1280     4.2740     1.1980 hc         1 JDS       0.042200
     38 H9           3.1600     5.0550    -0.3690 hc         1 JDS       0.042200
     39 H10          1.8630     2.8980    -0.3090 hc         1 JDS       0.055700
     40 H11          3.0610     2.9920    -1.5620 hc         1 JDS       0.055700
     41 H12          6.6550    -1.6810     1.5090 ha         1 JDS       0.135000
     42 H13          5.7860    -3.9290     0.9800 ha         1 JDS       0.132000
     43 H14          2.2920    -2.2080    -0.7820 ha         1 JDS       0.123000
     44 H15          0.4580    -0.3250     0.3420 h1         1 JDS       0.039200
     45 H16          0.6800     1.4100     0.2740 h1         1 JDS       0.039200
     46 H17         -0.4200     1.4960    -1.9490 hc         1 JDS       0.047700
     47 H18         -0.6180    -0.2480    -1.9320 hc         1 JDS       0.047700
     48 H19         -2.0330    -0.0620     0.1380 hc         1 JDS       0.046200
     49 H20         -1.8610     1.6820     0.0870 hc         1 JDS       0.046200
     50 H21         -2.9490     1.7190    -2.1690 hc         1 JDS       0.056700
     51 H22         -3.1230    -0.0280    -2.1090 hc         1 JDS       0.056700
     52 H23         -4.4380     3.1710    -0.8270 ha         1 JDS       0.126000
     53 H24         -6.5580     3.3220     0.4500 ha         1 JDS       0.136000
     54 H25         -7.1010    -1.2840     1.8730 h4         1 JDS       0.025800
     55 N02          1.8550     0.3630    -1.1050 nu         1 JDS      -0.921200
@<TRIPOS>BOND
     1     1    18 1   
     2     2     3 ar  
     3     2     5 1   
     4     2    12 ar  
     5     3    13 ar  
     6     4    10 1   
     7     4    30 1   
     8     5     7 1   
     9     5    31 1   
    10     5    32 1   
    11     6    27 1   
    12     6    34 1   
    13     7     9 1   
    14     7    35 1   
    15     7    36 1   
    16     8    24 ar  
    17     8    28 ar  
    18     9    11 1   
    19     9    37 1   
    20     9    38 1   
    21    10    29 2   
    22    11    12 1   
    23    11    39 1   
    24    11    40 1   
    25    12    15 ar  
    26    13    14 ar  
    27    13    16 ar  
    28    14    15 ar  
    29    14    19 ar  
    30    15    55 1   
    31    16    17 ar  
    32    16    41 1   
    33    17    18 ar  
    34    17    42 1   
    35    18    19 ar  
    36    19    43 1   
    37    20    21 1   
    38    20    44 1   
    39    20    45 1   
    40    20    55 1   
    41    21    22 1   
    42    21    46 1   
    43    21    47 1   
    44    22    23 1   
    45    22    48 1   
    46    22    49 1   
    47    23    24 1   
    48    23    50 1   
    49    23    51 1   
    50    24    25 ar  
    51    25    26 ar  
    52    25    52 1   
    53    26    27 ar  
    54    26    53 1   
    55    27    28 ar  
    56    28    29 1   
    57    29    54 1   
    58    33    55 1   
@<TRIPOS>SUBSTRUCTURE
     1 JDS         1 TEMP              0 ****  ****    0 ROOT
