@<TRIPOS>MOLECULE
JDS
   55    58     1     0     0
SMALL
No Charge or Current Charge


@<TRIPOS>ATOM
      1 Cl1          3.3240    -4.7170     0.0480 cl         1 JDS      -0.202000
      2 C01          5.0650     1.7580     0.5200 ca         1 JDS       0.391300
      3 N01          5.7270     0.6420     0.8890 nb         1 JDS      -0.683000
      4 O01         -7.8450    -1.8680    -1.5820 oh         1 JDS      -0.480000
      5 C02          5.8240     3.0600     0.7920 c6         1 JDS      -0.133700
      6 O02         -8.0650     1.1000     1.3750 oh         1 JDS      -0.529100
      7 C03          5.2930     4.2580    -0.0250 c6         1 JDS      -0.074400
      8 N03         -5.1380    -0.3430    -0.3820 nb         1 JDS      -0.617000
      9 C04          3.7580     4.3290     0.0770 c6         1 JDS      -0.078400
     10 N04         -7.3810    -2.4110    -0.3700 n2         1 JDS      -0.307700
     11 C05          3.1070     3.0560    -0.5120 c6         1 JDS      -0.018100
     12 C06          3.7810     1.7420    -0.0640 ca         1 JDS      -0.120300
     13 C07          5.1530    -0.5600     0.6820 ca         1 JDS       0.285000
     14 C08          3.8710    -0.6870     0.0910 ca         1 JDS      -0.109000
     15 C09          3.1760     0.4860    -0.2840 ca         1 JDS       0.286000
     16 C10          5.8490    -1.7220     1.0650 ca         1 JDS      -0.074000
     17 C11          5.2940    -2.9980     0.8700 ca         1 JDS      -0.098000
     18 C12          4.0270    -3.1230     0.2890 ca         1 JDS       0.119000
     19 C13          3.3150    -1.9780    -0.1000 ca         1 JDS      -0.093000
     20 C14          0.6530     0.5340    -0.1420 c3         1 JDS       0.179800
     21 C15         -0.5480     0.5150    -1.1060 c3         1 JDS      -0.082400
     22 C16         -1.9030     0.6590    -0.3800 c3         1 JDS      -0.073400
     23 C17         -3.1130     0.6420    -1.3420 c3         1 JDS      -0.119700
     24 C18         -4.4410     0.7930    -0.6130 ca         1 JDS       0.320300
     25 C19         -4.8940     2.0580    -0.1960 ca         1 JDS      -0.115000
     26 C20         -6.1210     2.1590     0.4820 ca         1 JDS      -0.115000
     27 C21         -6.8600     0.9900     0.7210 ca         1 JDS       0.109100
     28 C22         -6.3350    -0.2550     0.2710 ca         1 JDS       0.210700
     29 C23         -7.0750    -1.5350     0.5460 ce         1 JDS       0.292200
     30 H1          -8.0170    -2.6470    -2.1630 ho         1 JDS       0.464000
     31 H2           5.7490     3.2890     1.8630 hc         1 JDS       0.063200
     32 H3           6.8940     2.9250     0.5820 hc         1 JDS       0.063200
     33 H4           1.8750    -0.3060    -1.6190 hn         1 JDS       0.436000
     34 H5          -8.5760     0.2670     1.2830 ho         1 JDS       0.473000
     35 H6           5.7420     5.1920     0.3420 hc         1 JDS       0.046700
     36 H7           5.5910     4.1570    -1.0780 hc         1 JDS       0.046700
     37 H8           3.4620     4.4430     1.1290 hc         1 JDS       0.042200
     38 H9           3.3830     5.2170    -0.4500 hc         1 JDS       0.042200
     39 H10          2.0430     3.0610    -0.2470 hc         1 JDS       0.055700
     40 H11          3.1440     3.1100    -1.6090 hc         1 JDS       0.055700
     41 H12          6.8320    -1.6300     1.5170 ha         1 JDS       0.135000
     42 H13          5.8450    -3.8860     1.1720 ha         1 JDS       0.132000
     43 H14          2.3310    -2.1090    -0.5410 ha         1 JDS       0.123000
     44 H15          0.5580    -0.2930     0.5760 h1         1 JDS       0.039200
     45 H16          0.6410     1.4720     0.4290 h1         1 JDS       0.039200
     46 H17         -0.4390     1.3330    -1.8310 hc         1 JDS       0.047700
     47 H18         -0.5410    -0.4240    -1.6740 hc         1 JDS       0.047700
     48 H19         -2.0120    -0.1570     0.3470 hc         1 JDS       0.046200
     49 H20         -1.9090     1.5960     0.1910 hc         1 JDS       0.046200
     50 H21         -3.0030     1.4530    -2.0720 hc         1 JDS       0.056700
     51 H22         -3.1000    -0.2910    -1.9200 hc         1 JDS       0.056700
     52 H23         -4.3000     2.9460    -0.3960 ha         1 JDS       0.126000
     53 H24         -6.4930     3.1260     0.8130 ha         1 JDS       0.136000
     54 H25         -7.3920    -1.6900     1.5790 h4         1 JDS       0.025800
     55 N02          1.9120     0.4020    -0.8870 nu         1 JDS      -0.921200
@<TRIPOS>BOND
     1     1    18 1   
     2     2     3 ar  
     3     2     5 1   
     4     2    12 ar  
     5     3    13 ar  
     6     4    10 1   
     7     4    30 1   
     8     5     7 1   
     9     5    31 1   
    10     5    32 1   
    11     6    27 1   
    12     6    34 1   
    13     7     9 1   
    14     7    35 1   
    15     7    36 1   
    16     8    24 ar  
    17     8    28 ar  
    18     9    11 1   
    19     9    37 1   
    20     9    38 1   
    21    10    29 2   
    22    11    12 1   
    23    11    39 1   
    24    11    40 1   
    25    12    15 ar  
    26    13    14 ar  
    27    13    16 ar  
    28    14    15 ar  
    29    14    19 ar  
    30    15    55 1   
    31    16    17 ar  
    32    16    41 1   
    33    17    18 ar  
    34    17    42 1   
    35    18    19 ar  
    36    19    43 1   
    37    20    21 1   
    38    20    44 1   
    39    20    45 1   
    40    20    55 1   
    41    21    22 1   
    42    21    46 1   
    43    21    47 1   
    44    22    23 1   
    45    22    48 1   
    46    22    49 1   
    47    23    24 1   
    48    23    50 1   
    49    23    51 1   
    50    24    25 ar  
    51    25    26 ar  
    52    25    52 1   
    53    26    27 ar  
    54    26    53 1   
    55    27    28 ar  
    56    28    29 1   
    57    29    54 1   
    58    33    55 1   
@<TRIPOS>SUBSTRUCTURE
     1 JDS         1 TEMP              0 ****  ****    0 ROOT
