@<TRIPOS>MOLECULE
JDU
   49    52     1     0     0
SMALL
bcc


@<TRIPOS>ATOM
      1 C5          88.7380   -10.8670    15.0100 ca         1 JDU       0.392200
      2 C6          89.4510    -9.8020    15.5670 ca         1 JDU      -0.146000
      3 C8          94.6560    -6.9910    13.8920 cc         1 JDU      -0.260000
      4 C13         93.5240    -7.2290    14.6790 cc         1 JDU       0.039000
      5 C15         91.4380    -8.3800    15.2510 c          1 JDU       0.701300
      6 C20         95.9290   -12.1020     9.6070 cc         1 JDU       0.162700
      7 C22         94.1210   -12.8830     8.7270 cc         1 JDU       0.555900
      8 C24         93.3180   -13.6430     7.7810 ca         1 JDU      -0.140500
      9 C26         91.7280   -15.0870     6.0040 ca         1 JDU      -0.107000
     10 C28         93.1080   -15.0780     5.8560 ca         1 JDU      -0.137000
     11 C1          88.9540    -9.3130    16.7760 ca         1 JDU       0.392200
     12 N2          87.8780    -9.8450    17.3450 nb         1 JDU      -0.681500
     13 C3          87.2840   -10.8520    16.7300 ca         1 JDU       0.605900
     14 N4          87.6680   -11.3880    15.5800 nb         1 JDU      -0.681500
     15 N7          90.5640    -9.3490    14.8810 ns         1 JDU      -0.467100
     16 C9          94.8170    -7.7330    12.7630 cd         1 JDU       0.040600
     17 N10         93.9150    -8.6630    12.3880 n          1 JDU      -0.319000
     18 C11         92.7700    -8.9430    13.1220 c          1 JDU       0.704700
     19 C12         92.5940    -8.1750    14.3300 cd         1 JDU      -0.312400
     20 O16         91.3180    -7.7170    16.2680 o          1 JDU      -0.601100
     21 C18         94.7870   -10.8130    11.5220 c3         1 JDU      -0.107700
     22 C19         94.8560   -11.6820    10.3170 cd         1 JDU       0.233300
     23 O21         95.4540   -12.8740     8.5920 os         1 JDU      -0.345800
     24 N23         93.7120   -12.1890     9.7350 nd         1 JDU      -0.671000
     25 C25         93.9030   -14.3600     6.7370 ca         1 JDU      -0.089000
     26 C27         91.1420   -14.3730     7.0430 ca         1 JDU      -0.137000
     27 C29         91.9300   -13.6550     7.9260 ca         1 JDU      -0.089000
     28 H1          89.0590   -11.3030    14.0680 h4         1 JDU       0.041600
     29 H2          95.3910    -6.2490    14.1620 ha         1 JDU       0.161000
     30 H3          93.3800    -6.6580    15.5870 ha         1 JDU       0.167000
     31 H4          93.2200    -9.5890    10.6580 h1         1 JDU       0.077700
     32 H5          94.8260    -8.8880    10.5390 h1         1 JDU       0.077700
     33 H6          91.1110   -15.6490     5.3150 ha         1 JDU       0.134000
     34 H7          93.5710   -15.6330     5.0500 ha         1 JDU       0.136500
     35 H8          89.4210    -8.4890    17.2930 h4         1 JDU       0.041600
     36 H9          86.4080   -11.2770    17.2060 h5         1 JDU       0.049100
     37 H10         90.7950    -9.8150    14.0000 hn         1 JDU       0.369500
     38 H11         95.6710    -7.6140    12.1100 h4         1 JDU       0.155000
     39 H12         95.7850   -10.6630    11.9380 hc         1 JDU       0.065700
     40 H13         94.1920   -11.3140    12.2890 hc         1 JDU       0.065700
     41 H14         94.9770   -14.3660     6.6040 ha         1 JDU       0.149500
     42 H15         90.0670   -14.3760     7.1650 ha         1 JDU       0.136500
     43 H16         91.4700   -13.1020     8.7340 ha         1 JDU       0.149500
     44 H17         97.8030   -11.4380     8.8250 hc         1 JDU       0.057367
     45 H18         97.6140   -11.2680    10.5680 hc         1 JDU       0.057367
     46 H19         97.9110   -12.8570     9.8680 hc         1 JDU       0.057367
     47 O14         91.9940    -9.8100    12.7080 o          1 JDU      -0.652500
     48 C17         94.1630    -9.4600    11.1850 c3         1 JDU       0.086000
     49 C30         97.3900   -11.9090     9.7190 c3         1 JDU      -0.117400
@<TRIPOS>BOND
     1     1     2 ar  
     2     1    14 ar  
     3     1    28 1   
     4     2    11 ar  
     5     2    15 1   
     6     3     4 1   
     7     3    16 2   
     8     3    29 1   
     9     4    19 2   
    10     4    30 1   
    11     5    15 1   
    12     5    19 1   
    13     5    20 2   
    14     6    22 2   
    15     6    23 1   
    16     6    49 1   
    17     7     8 1   
    18     7    23 1   
    19     7    24 2   
    20     8    25 ar  
    21     8    27 ar  
    22     9    10 ar  
    23     9    26 ar  
    24     9    33 1   
    25    10    25 ar  
    26    10    34 1   
    27    11    12 ar  
    28    11    35 1   
    29    12    13 ar  
    30    13    14 ar  
    31    13    36 1   
    32    15    37 1   
    33    16    17 1   
    34    16    38 1   
    35    17    18 1   
    36    17    48 1   
    37    18    19 1   
    38    18    47 2   
    39    21    22 1   
    40    21    39 1   
    41    21    40 1   
    42    21    48 1   
    43    22    24 1   
    44    25    41 1   
    45    26    27 ar  
    46    26    42 1   
    47    27    43 1   
    48    31    48 1   
    49    32    48 1   
    50    44    49 1   
    51    45    49 1   
    52    46    49 1   
@<TRIPOS>SUBSTRUCTURE
     1 JDU         1 TEMP              0 ****  ****    0 ROOT
