@<TRIPOS>MOLECULE
JDU
   49    52     1     0     0
SMALL
No Charge or Current Charge


@<TRIPOS>ATOM
      1 C5          88.3060   -10.3410    15.3280 ca         1 JDU       0.063900
      2 C6          89.2120    -9.4500    15.9380 ca         1 JDU      -0.108000
      3 C8          94.8770    -7.4620    14.0980 cc         1 JDU      -0.310000
      4 C13         93.7520    -7.5340    14.9740 cc         1 JDU      -0.011000
      5 C15         91.5250    -8.3630    15.6230 c          1 JDU       0.634300
      6 C20         95.8780   -11.8730     9.2560 cc         1 JDU       0.118300
      7 C22         94.2480   -12.9860     8.4340 cc         1 JDU       0.511500
      8 C24         93.5410   -13.8270     7.4580 ca         1 JDU      -0.140500
      9 C26         92.1700   -15.4480     5.5860 ca         1 JDU      -0.089000
     10 C28         93.5010   -15.0710     5.3490 ca         1 JDU      -0.119000
     11 C1          88.8160    -8.8890    17.1750 ca         1 JDU       0.063900
     12 N2          87.6290    -9.1930    17.7410 nb         1 JDU      -0.155500
     13 C3          86.8400   -10.0570    17.0690 ca         1 JDU       0.079900
     14 N4          87.1190   -10.6480    15.8890 nb         1 JDU      -0.155500
     15 N7          90.4490    -9.1740    15.2860 ns         1 JDU      -0.141000
     16 C9          94.8980    -8.1850    12.9330 cd         1 JDU      -0.009400
     17 N10         93.8310    -9.0020    12.5730 n          1 JDU      -0.252000
     18 C11         92.6750    -9.1330    13.3870 c          1 JDU       0.562200
     19 C12         92.6680    -8.3380    14.6540 cd         1 JDU      -0.312400
     20 O16         91.5470    -7.7010    16.6550 o          1 JDU      -0.601100
     21 C18         94.6890   -11.0730    11.4200 c3         1 JDU      -0.107700
     22 C19         94.8020   -11.7960    10.1060 cd         1 JDU       0.233300
     23 O21         95.5420   -12.6290     8.1820 os         1 JDU      -0.257000
     24 N23         93.7550   -12.5140     9.5710 nd         1 JDU      -0.671000
     25 C25         94.1840   -14.2660     6.2770 ca         1 JDU      -0.071000
     26 C27         91.5210   -15.0190     6.7540 ca         1 JDU      -0.119000
     27 C29         92.2010   -14.2140     7.6850 ca         1 JDU      -0.071000
     28 H1          88.5330   -10.8170    14.3750 h4         1 JDU       0.041600
     29 H2          95.7180    -6.8260    14.3700 ha         1 JDU       0.211000
     30 H3          93.7780    -6.9430    15.8900 ha         1 JDU       0.217000
     31 H4          92.8940    -9.9630    10.9150 h1         1 JDU       0.077700
     32 H5          94.3900    -9.1180    10.5420 h1         1 JDU       0.077700
     33 H6          91.6420   -16.0710     4.8660 ha         1 JDU       0.116000
     34 H7          94.0060   -15.4030     4.4440 ha         1 JDU       0.118500
     35 H8          89.4360    -8.1920    17.7320 h4         1 JDU       0.041600
     36 H9          85.8830   -10.3020    17.5250 h5         1 JDU       0.049100
     37 H10         90.5700    -9.6610    14.4070 hn         1 JDU       0.203000
     38 H11         95.7210    -8.1770    12.2210 h4         1 JDU       0.205000
     39 H12         95.6890   -10.8630    11.8180 hc         1 JDU       0.065700
     40 H13         94.1910   -11.7160    12.1550 hc         1 JDU       0.065700
     41 H14         95.2160   -13.9870     6.0710 ha         1 JDU       0.131500
     42 H15         90.4890   -15.3100     6.9400 ha         1 JDU       0.118500
     43 H16         91.6800   -13.8910     8.5850 ha         1 JDU       0.131500
     44 H17         97.8140   -11.4440     8.4070 hc         1 JDU       0.057367
     45 H18         97.2080   -10.2020     9.5190 hc         1 JDU       0.057367
     46 H19         97.8270   -11.7390    10.1560 hc         1 JDU       0.057367
     47 O14         91.7550    -9.8660    13.0480 o          1 JDU      -0.577000
     48 C17         93.9030    -9.7530    11.2940 c3         1 JDU       0.086000
     49 C30         97.2580   -11.2820     9.3380 c3         1 JDU      -0.117400
@<TRIPOS>BOND
     1     1     2 ar  
     2     1    14 ar  
     3     1    28 1   
     4     2    11 ar  
     5     2    15 1   
     6     3     4 1   
     7     3    16 2   
     8     3    29 1   
     9     4    19 2   
    10     4    30 1   
    11     5    15 1   
    12     5    19 1   
    13     5    20 2   
    14     6    22 2   
    15     6    23 1   
    16     6    49 1   
    17     7     8 1   
    18     7    23 1   
    19     7    24 2   
    20     8    25 ar  
    21     8    27 ar  
    22     9    10 ar  
    23     9    26 ar  
    24     9    33 1   
    25    10    25 ar  
    26    10    34 1   
    27    11    12 ar  
    28    11    35 1   
    29    12    13 ar  
    30    13    14 ar  
    31    13    36 1   
    32    15    37 1   
    33    16    17 1   
    34    16    38 1   
    35    17    18 1   
    36    17    48 1   
    37    18    19 1   
    38    18    47 2   
    39    21    22 1   
    40    21    39 1   
    41    21    40 1   
    42    21    48 1   
    43    22    24 1   
    44    25    41 1   
    45    26    27 ar  
    46    26    42 1   
    47    27    43 1   
    48    31    48 1   
    49    32    48 1   
    50    44    49 1   
    51    45    49 1   
    52    46    49 1   
@<TRIPOS>SUBSTRUCTURE
     1 JDU         1 TEMP              0 ****  ****    0 ROOT
