@<TRIPOS>MOLECULE
JDV
   88    94     1     0     0
SMALL
No Charge or Current Charge


@<TRIPOS>ATOM
      1 CAA         -7.2750   -19.3160    19.1730 c5         1 JDV       0.382300
      2 CAC         -6.9800   -17.7090    17.4940 c5         1 JDV       0.167600
      3 CAD         -7.5660   -16.9140    18.7040 c5         1 JDV      -0.118700
      4 CAE         -7.2590   -17.8910    19.8730 c5         1 JDV      -0.126700
      5 CAF         -9.1460   -16.7850    18.7190 c5         1 JDV       0.196300
      6 CAG         -9.6290   -17.8570    19.7540 c5         1 JDV      -0.099700
      7 CAH         -8.5000   -17.7080    20.8080 c5         1 JDV      -0.068400
      8 CAJ         -9.7360   -19.3210    19.2510 c6         1 JDV       0.162600
      9 CAO         -9.8070   -15.7900    14.0300 c3         1 JDV       0.093700
     10 CAS         -9.4410   -13.8370     9.7610 ca         1 JDV      -0.338500
     11 CAT        -11.0750   -14.9690    13.6410 c3         1 JDV       0.158300
     12 CAW         -9.2890   -16.7650    12.9400 c3         1 JDV      -0.039100
     13 CAX        -10.5720   -13.9570     8.9260 ca         1 JDV       0.046000
     14 CAY        -10.6470   -15.0620     8.0650 ca         1 JDV      -0.229000
     15 CAZ         -9.6550   -16.0210     8.0090 ca         1 JDV       0.203400
     16 CBA         -8.5260   -15.9060     8.8320 ca         1 JDV      -0.105000
     17 CBB         -8.4160   -14.8100     9.7090 ca         1 JDV      -0.010000
     18 CBD        -11.0130   -16.8470     6.5200 cc         1 JDV       0.669100
     19 CBG        -12.5710   -17.7880     4.7730 cx         1 JDV       0.142500
     20 CBH         -8.0110   -17.4760    13.3750 ca         1 JDV      -0.107300
     21 CBI         -8.0430   -18.8270    13.7760 ca         1 JDV      -0.078500
     22 CBJ         -6.8670   -19.4630    14.2100 ca         1 JDV      -0.147000
     23 CBK         -5.6580   -18.7510    14.2440 ca         1 JDV       0.161000
     24 CBL         -5.6170   -17.4080    13.8440 ca         1 JDV      -0.147000
     25 CBM         -6.7920   -16.7700    13.4090 ca         1 JDV      -0.078500
     26 CBN        -13.8530   -18.2640     5.4060 cx         1 JDV      -0.123900
     27 CBO        -13.1370   -19.1360     4.4050 cx         1 JDV      -0.123900
     28 CBQ         -9.6500   -12.2080    13.5600 c3         1 JDV       0.215800
     29 CBR         -8.2830   -11.5890    13.9710 c3         1 JDV      -0.075700
     30 CBS         -7.2000   -12.6630    14.2390 c3         1 JDV      -0.087100
     31 CBT         -8.4490   -10.6630    15.1990 c3         1 JDV      -0.087100
     32 FBU         -4.5300   -19.3620    14.6670 f          1 JDV      -0.186000
     33 NAN         -9.9970   -16.5110    15.2960 ns         1 JDV      -0.497900
     34 NBE         -9.8490   -17.0690     7.1160 nd         1 JDV      -0.651100
     35 NBF        -11.3990   -17.7660     5.5980 nu         1 JDV      -0.854400
     36 OAB         -7.2630   -19.0980    17.7500 os         1 JDV      -0.479000
     37 OAI         -8.4980   -20.0350    19.4610 os         1 JDV      -0.462000
     38 OAK         -9.7350   -17.0570    17.4220 os         1 JDV      -0.460100
     39 OAM         -9.1810   -14.9200    16.7320 o          1 JDV      -0.536000
     40 OAU         -7.8850   -12.0810    10.9250 o          1 JDV      -0.547500
     41 OAV        -10.3670   -11.4840    10.6390 o          1 JDV      -0.547500
     42 OBP        -12.1910   -15.8530    13.4110 oh         1 JDV      -0.671000
     43 SAR         -9.3020   -12.4570    10.9060 sy         1 JDV       1.197600
     44 SBC        -11.9630   -15.4070     6.9550 ss         1 JDV      -0.014200
     45 HAA         -6.4030   -19.9120    19.4760 h2         1 JDV       0.094700
     46 HAD         -7.3810   -17.4130    16.5160 h1         1 JDV       0.059200
     47 HAC         -5.8890   -17.5870    17.4510 h1         1 JDV       0.059200
     48 HAE         -7.0880   -15.9350    18.8280 hc         1 JDV       0.086700
     49 HAF         -6.3030   -17.6880    20.3680 hc         1 JDV       0.077700
     50 HAG         -9.4540   -15.7880    19.0660 h1         1 JDV       0.063700
     51 HAH        -10.6130   -17.5970    20.1590 hc         1 JDV       0.070700
     52 HAI         -8.5080   -16.7240    21.2930 hc         1 JDV       0.061200
     53 HAJ         -8.5520   -18.4620    21.6030 hc         1 JDV       0.061200
     54 HAK        -10.5250   -19.8470    19.8080 h1         1 JDV       0.057200
     55 HAL        -10.0070   -19.3620    18.1870 h1         1 JDV       0.057200
     56 HAO         -9.0030   -15.0590    14.1910 h1         1 JDV       0.104700
     57 HAP        -11.7580   -13.4280    12.2770 h1         1 JDV       0.064700
     58 HAQ        -10.8360   -14.7260    11.5410 h1         1 JDV       0.064700
     59 HAT        -11.3160   -14.3240    14.4950 h1         1 JDV       0.056700
     60 HAW        -10.0720   -17.4940    12.6980 hc         1 JDV       0.063200
     61 HAX         -9.0950   -16.2100    12.0160 hc         1 JDV       0.063200
     62 HAY        -11.3760   -13.2220     8.9470 ha         1 JDV       0.141000
     63 HBA         -7.7430   -16.6580     8.7930 ha         1 JDV       0.137000
     64 HBB         -7.5410   -14.7250    10.3520 ha         1 JDV       0.134000
     65 HBG        -12.6370   -16.9860     4.0330 h1         1 JDV       0.091700
     66 HBI         -8.9790   -19.3820    13.7610 ha         1 JDV       0.128000
     67 HBJ         -6.8920   -20.5030    14.5270 ha         1 JDV       0.134500
     68 HBL         -4.6770   -16.8620    13.8730 ha         1 JDV       0.134500
     69 HBM         -6.7560   -15.7270    13.1030 ha         1 JDV       0.128000
     70 HBO        -14.7770   -17.7830     5.0930 hc         1 JDV       0.085200
     71 HBN        -13.8280   -18.5630     6.4510 hc         1 JDV       0.085200
     72 HBQ        -13.5780   -19.2430     3.4170 hc         1 JDV       0.085200
     73 HBP        -12.6340   -20.0260     4.7770 hc         1 JDV       0.085200
     74 HBR        -10.3560   -11.3930    13.3510 h1         1 JDV       0.042200
     75 HBS        -10.0220   -12.7030    14.4640 h1         1 JDV       0.042200
     76 HBT         -7.9300   -10.9500    13.1560 hc         1 JDV       0.084700
     77 HBV         -6.2470   -12.1930    14.5080 hc         1 JDV       0.036867
     78 HBW         -7.4990   -13.3240    15.0620 hc         1 JDV       0.036867
     79 HBU         -7.0290   -13.2800    13.3500 hc         1 JDV       0.036867
     80 HBZ         -7.4970   -10.1810    15.4530 hc         1 JDV       0.036867
     81 HBX         -9.1830    -9.8740    14.9930 hc         1 JDV       0.036867
     82 HBY         -8.7910   -11.2300    16.0740 hc         1 JDV       0.036867
     83 HAN        -10.2760   -17.4830    15.2720 hn         1 JDV       0.318500
     84 HBF        -10.6860   -18.4860     5.5100 hn         1 JDV       0.514000
     85 HB0        -12.3210   -16.3640    14.2400 ho         1 JDV       0.450000
     86 CAL         -9.6020   -16.0450    16.5150 c          1 JDV       0.635100
     87 CAP        -10.8600   -14.0470    12.4000 c3         1 JDV       0.212800
     88 NAQ         -9.6450   -13.1730    12.4240 n3         1 JDV      -0.750500
@<TRIPOS>BOND
     1     1     4 1   
     2     1    36 1   
     3     1    37 1   
     4     1    45 1   
     5     2     3 1   
     6     2    36 1   
     7     2    46 1   
     8     2    47 1   
     9     3     4 1   
    10     3     5 1   
    11     3    48 1   
    12     4     7 1   
    13     4    49 1   
    14     5     6 1   
    15     5    38 1   
    16     5    50 1   
    17     6     7 1   
    18     6     8 1   
    19     6    51 1   
    20     7    52 1   
    21     7    53 1   
    22     8    37 1   
    23     8    54 1   
    24     8    55 1   
    25     9    11 1   
    26     9    12 1   
    27     9    33 1   
    28     9    56 1   
    29    10    13 ar  
    30    10    17 ar  
    31    10    43 1   
    32    11    42 1   
    33    11    59 1   
    34    11    87 1   
    35    12    20 1   
    36    12    60 1   
    37    12    61 1   
    38    13    14 ar  
    39    13    62 1   
    40    14    15 ar  
    41    14    44 1   
    42    15    16 ar  
    43    15    34 1   
    44    16    17 ar  
    45    16    63 1   
    46    17    64 1   
    47    18    34 2   
    48    18    35 1   
    49    18    44 1   
    50    19    26 1   
    51    19    27 1   
    52    19    35 1   
    53    19    65 1   
    54    20    21 ar  
    55    20    25 ar  
    56    21    22 ar  
    57    21    66 1   
    58    22    23 ar  
    59    22    67 1   
    60    23    24 ar  
    61    23    32 1   
    62    24    25 ar  
    63    24    68 1   
    64    25    69 1   
    65    26    27 1   
    66    26    70 1   
    67    26    71 1   
    68    27    72 1   
    69    27    73 1   
    70    28    29 1   
    71    28    74 1   
    72    28    75 1   
    73    28    88 1   
    74    29    30 1   
    75    29    31 1   
    76    29    76 1   
    77    30    77 1   
    78    30    78 1   
    79    30    79 1   
    80    31    80 1   
    81    31    81 1   
    82    31    82 1   
    83    33    83 1   
    84    33    86 1   
    85    35    84 1   
    86    38    86 1   
    87    39    86 2   
    88    40    43 2   
    89    41    43 2   
    90    42    85 1   
    91    43    88 1   
    92    57    87 1   
    93    58    87 1   
    94    87    88 1   
@<TRIPOS>SUBSTRUCTURE
     1 JDV         1 TEMP              0 ****  ****    0 ROOT
