@<TRIPOS>MOLECULE
JDV
   88    94     1     0     0
SMALL
abcg2


@<TRIPOS>ATOM
      1 CAA         -5.8160   -17.3630    20.5120 c5         1 JDV       0.382300
      2 CAC         -5.8800   -16.5700    18.2900 c5         1 JDV       0.167600
      3 CAD         -6.9300   -15.7870    19.0580 c5         1 JDV      -0.118700
      4 CAE         -6.5250   -15.9880    20.5340 c5         1 JDV      -0.126700
      5 CAF         -8.3840   -16.3360    19.0110 c5         1 JDV       0.196300
      6 CAG         -8.6080   -17.0390    20.3570 c5         1 JDV      -0.099700
      7 CAH         -7.8450   -16.1000    21.2990 c5         1 JDV      -0.068400
      8 CAJ         -7.9640   -18.4370    20.4420 c6         1 JDV       0.162600
      9 CAO         -9.0110   -17.4370    14.3540 c3         1 JDV       0.093700
     10 CAS         -9.4840   -15.2920     9.6340 ca         1 JDV      -0.338500
     11 CAT        -10.3890   -17.6050    13.6960 c3         1 JDV       0.158300
     12 CAW         -7.9340   -18.3500    13.7470 c3         1 JDV      -0.039100
     13 CAX        -10.2570   -14.3690     8.9300 ca         1 JDV       0.046000
     14 CAY        -10.5990   -14.6810     7.6270 ca         1 JDV      -0.229000
     15 CAZ        -10.1910   -15.8890     7.0100 ca         1 JDV       0.203400
     16 CBA         -9.4110   -16.7920     7.7400 ca         1 JDV      -0.105000
     17 CBB         -9.0620   -16.4920     9.0460 ca         1 JDV      -0.010000
     18 CBD        -11.3160   -15.0370     5.3100 cc         1 JDV       0.669100
     19 CBG        -12.5060   -13.7420     3.6150 cx         1 JDV       0.142500
     20 CBH         -6.5770   -18.1400    14.3660 ca         1 JDV      -0.107300
     21 CBI         -6.0100   -19.1120    15.1890 ca         1 JDV      -0.078500
     22 CBJ         -4.7630   -18.9260    15.7770 ca         1 JDV      -0.147000
     23 CBK         -4.0950   -17.7440    15.5280 ca         1 JDV       0.161000
     24 CBL         -4.6190   -16.7510    14.7200 ca         1 JDV      -0.147000
     25 CBM         -5.8650   -16.9590    14.1410 ca         1 JDV      -0.078500
     26 CBN        -13.8770   -13.3920     4.1360 cx         1 JDV      -0.123900
     27 CBO        -13.7040   -13.8990     2.7310 cx         1 JDV      -0.123900
     28 CBQ        -11.6020   -14.8610    12.2680 c3         1 JDV       0.215800
     29 CBR        -11.6820   -13.7220    13.2850 c3         1 JDV      -0.075700
     30 CBS        -11.4590   -14.2070    14.7140 c3         1 JDV      -0.087100
     31 CBT        -13.0430   -13.0390    13.1360 c3         1 JDV      -0.087100
     32 FBU         -2.8830   -17.5410    16.1110 f          1 JDV      -0.186000
     33 NAN         -9.0960   -17.6570    15.7920 ns         1 JDV      -0.497900
     34 NBE        -10.6030   -16.0580     5.7110 nd         1 JDV      -0.651100
     35 NBF        -11.8730   -14.9330     4.0930 nu         1 JDV      -0.854400
     36 OAB         -5.4200   -17.6100    19.1700 os         1 JDV      -0.479000
     37 OAI         -6.6330   -18.4040    20.9880 os         1 JDV      -0.462000
     38 OAK         -8.6660   -17.2440    17.9330 os         1 JDV      -0.460100
     39 OAM         -8.5590   -15.5300    16.4480 o          1 JDV      -0.536000
     40 OAU         -7.9060   -15.7210    11.6570 o          1 JDV      -0.547500
     41 OAV         -9.1150   -13.5460    11.5310 o          1 JDV      -0.547500
     42 OBP        -10.7990   -18.9710    13.6130 oh         1 JDV      -0.671000
     43 SAR         -9.0990   -14.9760    11.3270 sy         1 JDV       1.197600
     44 SBC        -11.5450   -13.7410     6.4980 ss         1 JDV      -0.014200
     45 HAA         -4.9320   -17.3970    21.1490 h2         1 JDV       0.094700
     46 HAD         -6.2480   -17.0390    17.3810 h1         1 JDV       0.059200
     47 HAC         -5.0390   -15.9220    18.0290 h1         1 JDV       0.059200
     48 HAE         -6.9220   -14.7420    18.7580 hc         1 JDV       0.086700
     49 HAF         -5.8470   -15.2190    20.9010 hc         1 JDV       0.077700
     50 HAG         -9.0730   -15.4970    18.9260 h1         1 JDV       0.063700
     51 HAH         -9.6710   -17.1210    20.5790 hc         1 JDV       0.070700
     52 HAI         -8.3360   -15.1290    21.3730 hc         1 JDV       0.061200
     53 HAJ         -7.7280   -16.5070    22.3030 hc         1 JDV       0.061200
     54 HAK         -8.5310   -19.0620    21.1300 h1         1 JDV       0.057200
     55 HAL         -7.9500   -18.9240    19.4660 h1         1 JDV       0.057200
     56 HAO         -8.7200   -16.3970    14.2230 h1         1 JDV       0.104700
     57 HAP        -11.3640   -17.3750    11.8010 h1         1 JDV       0.064700
     58 HAQ         -9.6220   -17.5150    11.6870 h1         1 JDV       0.064700
     59 HAT        -11.1100   -17.0450    14.2970 h1         1 JDV       0.056700
     60 HAW         -8.2390   -19.3890    13.8770 hc         1 JDV       0.063200
     61 HAX         -7.8800   -18.1580    12.6760 hc         1 JDV       0.063200
     62 HAY        -10.5620   -13.4380     9.3870 ha         1 JDV       0.141000
     63 HBA         -9.0810   -17.7130     7.2780 ha         1 JDV       0.137000
     64 HBB         -8.4480   -17.1770     9.6100 ha         1 JDV       0.134000
     65 HBG        -11.8320   -12.9180     3.4030 h1         1 JDV       0.091700
     66 HBI         -6.5520   -20.0310    15.3780 ha         1 JDV       0.128000
     67 HBJ         -4.3230   -19.6740    16.4230 ha         1 JDV       0.134500
     68 HBL         -4.0630   -15.8380    14.5550 ha         1 JDV       0.134500
     69 HBM         -6.2900   -16.1940    13.5040 ha         1 JDV       0.128000
     70 HBO        -14.0960   -12.3440     4.2880 hc         1 JDV       0.085200
     71 HBN        -14.3130   -14.0660     4.8600 hc         1 JDV       0.085200
     72 HBQ        -13.8090   -13.2040     1.9100 hc         1 JDV       0.085200
     73 HBP        -14.0280   -14.9110     2.5240 hc         1 JDV       0.085200
     74 HBR        -11.8400   -14.4850    11.2680 h1         1 JDV       0.042200
     75 HBS        -12.3650   -15.6010    12.5120 h1         1 JDV       0.042200
     76 HBT        -10.9060   -12.9960    13.0390 hc         1 JDV       0.084700
     77 HBV        -11.5290   -13.3720    15.4150 hc         1 JDV       0.036867
     78 HBW        -12.2170   -14.9440    14.9950 hc         1 JDV       0.036867
     79 HBU        -10.4790   -14.6660    14.8370 hc         1 JDV       0.036867
     80 HBZ        -13.1290   -12.1960    13.8250 hc         1 JDV       0.036867
     81 HBX        -13.1920   -12.6630    12.1210 hc         1 JDV       0.036867
     82 HBY        -13.8550   -13.7380    13.3590 hc         1 JDV       0.036867
     83 HAN         -9.1340   -18.6070    16.1300 hn         1 JDV       0.318500
     84 HBF        -11.6280   -15.6550     3.4290 hn         1 JDV       0.514000
     85 HB0        -10.9950   -19.2910    14.5020 ho         1 JDV       0.450000
     86 CAL         -8.7560   -16.7100    16.6920 c          1 JDV       0.635100
     87 CAP        -10.4260   -17.0700    12.2660 c3         1 JDV       0.212800
     88 NAQ        -10.3200   -15.6040    12.2350 n3         1 JDV      -0.750500
@<TRIPOS>BOND
     1     1     4 1   
     2     1    36 1   
     3     1    37 1   
     4     1    45 1   
     5     2     3 1   
     6     2    36 1   
     7     2    46 1   
     8     2    47 1   
     9     3     4 1   
    10     3     5 1   
    11     3    48 1   
    12     4     7 1   
    13     4    49 1   
    14     5     6 1   
    15     5    38 1   
    16     5    50 1   
    17     6     7 1   
    18     6     8 1   
    19     6    51 1   
    20     7    52 1   
    21     7    53 1   
    22     8    37 1   
    23     8    54 1   
    24     8    55 1   
    25     9    11 1   
    26     9    12 1   
    27     9    33 1   
    28     9    56 1   
    29    10    13 ar  
    30    10    17 ar  
    31    10    43 1   
    32    11    42 1   
    33    11    59 1   
    34    11    87 1   
    35    12    20 1   
    36    12    60 1   
    37    12    61 1   
    38    13    14 ar  
    39    13    62 1   
    40    14    15 ar  
    41    14    44 1   
    42    15    16 ar  
    43    15    34 1   
    44    16    17 ar  
    45    16    63 1   
    46    17    64 1   
    47    18    34 2   
    48    18    35 1   
    49    18    44 1   
    50    19    26 1   
    51    19    27 1   
    52    19    35 1   
    53    19    65 1   
    54    20    21 ar  
    55    20    25 ar  
    56    21    22 ar  
    57    21    66 1   
    58    22    23 ar  
    59    22    67 1   
    60    23    24 ar  
    61    23    32 1   
    62    24    25 ar  
    63    24    68 1   
    64    25    69 1   
    65    26    27 1   
    66    26    70 1   
    67    26    71 1   
    68    27    72 1   
    69    27    73 1   
    70    28    29 1   
    71    28    74 1   
    72    28    75 1   
    73    28    88 1   
    74    29    30 1   
    75    29    31 1   
    76    29    76 1   
    77    30    77 1   
    78    30    78 1   
    79    30    79 1   
    80    31    80 1   
    81    31    81 1   
    82    31    82 1   
    83    33    83 1   
    84    33    86 1   
    85    35    84 1   
    86    38    86 1   
    87    39    86 2   
    88    40    43 2   
    89    41    43 2   
    90    42    85 1   
    91    43    88 1   
    92    57    87 1   
    93    58    87 1   
    94    87    88 1   
@<TRIPOS>SUBSTRUCTURE
     1 JDV         1 TEMP              0 ****  ****    0 ROOT
