@<TRIPOS>MOLECULE
JDW
   49    52     1     0     0
SMALL
No Charge or Current Charge


@<TRIPOS>ATOM
      1 C2         116.3500   117.7220   117.9690 c3         1 JDW       0.025600
      2 C3         117.8960   115.9190   117.1840 ca         1 JDW       0.032700
      3 C4         118.8600   116.8300   116.6860 ca         1 JDW      -0.146500
      4 C5         119.8380   116.4120   115.7650 ca         1 JDW      -0.001000
      5 C6         119.8690   115.0790   115.3290 ca         1 JDW      -0.066500
      6 C7         118.9350   114.1580   115.8270 ca         1 JDW      -0.051000
      7 C8         117.9610   114.5700   116.7600 ca         1 JDW      -0.078500
      8 C10        116.1940   114.0020   118.3200 ca         1 JDW      -0.183000
      9 C17        112.0660   113.0110   121.0960 ca         1 JDW      -0.078500
     10 C16        111.8200   114.0180   120.1270 ca         1 JDW      -0.018000
     11 C15        113.3500   112.8540   121.6420 ca         1 JDW       0.063000
     12 C14        114.3760   113.7290   121.2650 ca         1 JDW      -0.183000
     13 C13        114.1440   114.7350   120.3070 ca         1 JDW       0.050900
     14 C11        116.1260   115.3450   118.7520 ca         1 JDW       0.000200
     15 C1         116.9030   118.6720   119.0570 c3         1 JDW      -0.121600
     16 C18        111.0240   112.1710   121.5390 ca         1 JDW      -0.051000
     17 C19        109.7240   112.3310   121.0390 ca         1 JDW      -0.066500
     18 C20        109.4580   113.3350   120.0980 ca         1 JDW      -0.001000
     19 C21        110.4940   114.1720   119.6460 ca         1 JDW      -0.146500
     20 C23        112.2260   117.0230   118.5550 c3         1 JDW      -0.121600
     21 C9         117.0760   113.6220   117.2990 ca         1 JDW       0.063000
     22 N1         116.8690   116.3320   118.0620 na         1 JDW       0.052800
     23 N2         112.8880   114.8270   119.6630 na         1 JDW       0.052800
     24 H1         116.5930   118.1300   116.9790 h1         1 JDW       0.088200
     25 H2         115.2550   117.7030   118.0160 h1         1 JDW       0.088200
     26 H3         118.8660   117.8700   116.9990 ha         1 JDW       0.151000
     27 H4         120.5690   117.1240   115.3870 ha         1 JDW       0.163000
     28 H5         120.6240   114.7590   114.6140 ha         1 JDW       0.169000
     29 H6         118.9810   113.1210   115.4980 ha         1 JDW       0.158000
     30 H7         115.5980   113.2270   118.7960 ha         1 JDW       0.160000
     31 H8         113.5440   112.0850   122.3880 ha         1 JDW       0.171000
     32 H9         115.3530   113.6300   121.7320 ha         1 JDW       0.160000
     33 H10        115.9650   115.7570   120.8560 hc         1 JDW       0.115700
     34 H11        114.8730   116.7190   119.9370 hc         1 JDW       0.115700
     35 H12        116.4920   119.6810   118.9250 hc         1 JDW       0.075367
     36 H13        116.6360   118.3280   120.0630 hc         1 JDW       0.075367
     37 H14        117.9950   118.7420   119.0040 hc         1 JDW       0.075367
     38 H15        111.2170   111.3960   122.2800 ha         1 JDW       0.158000
     39 H16        108.9210   111.6840   121.3860 ha         1 JDW       0.169000
     40 H17        108.4470   113.4650   119.7150 ha         1 JDW       0.163000
     41 H18        110.2370   114.9350   118.9170 ha         1 JDW       0.151000
     42 H19        112.0860   115.0240   117.7130 h1         1 JDW       0.088200
     43 H20        113.7190   115.6070   117.8670 h1         1 JDW       0.088200
     44 H21        112.1330   117.5110   117.5770 hc         1 JDW       0.075367
     45 H22        111.2400   117.0330   119.0340 hc         1 JDW       0.075367
     46 H23        112.9020   117.6260   119.1710 hc         1 JDW       0.075367
     47 H24        117.1230   112.5800   116.9860 ha         1 JDW       0.171000
     48 C12        115.2880   115.7100   119.9950 c3         1 JDW      -0.038800
     49 C22        112.7540   115.5780   118.3840 c3         1 JDW       0.025600
@<TRIPOS>BOND
     1     1    15 1   
     2     1    22 1   
     3     1    24 1   
     4     1    25 1   
     5     2     3 ar  
     6     2     7 ar  
     7     2    22 2   
     8     3     4 ar  
     9     3    26 1   
    10     4     5 ar  
    11     4    27 1   
    12     5     6 ar  
    13     5    28 1   
    14     6     7 ar  
    15     6    29 1   
    16     7    21 ar  
    17     8    14 ar  
    18     8    21 ar  
    19     8    30 1   
    20     9    10 ar  
    21     9    11 ar  
    22     9    16 ar  
    23    10    19 ar  
    24    10    23 1   
    25    11    12 ar  
    26    11    31 1   
    27    12    13 ar  
    28    12    32 1   
    29    13    23 2   
    30    13    48 1   
    31    14    22 1   
    32    14    48 1   
    33    15    35 1   
    34    15    36 1   
    35    15    37 1   
    36    16    17 ar  
    37    16    38 1   
    38    17    18 ar  
    39    17    39 1   
    40    18    19 ar  
    41    18    40 1   
    42    19    41 1   
    43    20    44 1   
    44    20    45 1   
    45    20    46 1   
    46    20    49 1   
    47    21    47 1   
    48    23    49 1   
    49    33    48 1   
    50    34    48 1   
    51    42    49 1   
    52    43    49 1   
@<TRIPOS>SUBSTRUCTURE
     1 JDW         1 TEMP              0 ****  ****    0 ROOT
