@<TRIPOS>MOLECULE
JDW
   49    52     1     0     0
SMALL
bcc


@<TRIPOS>ATOM
      1 C2         116.9170   117.8110   118.4300 c3         1 JDW      -0.003700
      2 C3         117.8530   115.9280   117.1620 ca         1 JDW       0.032700
      3 C4         118.9300   116.7370   116.7560 ca         1 JDW      -0.164500
      4 C5         119.8980   116.2150   115.9360 ca         1 JDW      -0.019000
      5 C6         119.8470   114.8850   115.4840 ca         1 JDW      -0.084500
      6 C7         118.8130   114.0840   115.8730 ca         1 JDW      -0.069000
      7 C8         117.8020   114.5870   116.7200 ca         1 JDW      -0.078500
      8 C10        115.7850   114.2840   117.9810 ca         1 JDW      -0.201000
      9 C17        112.2780   113.2900   121.1670 ca         1 JDW      -0.078500
     10 C16        111.8550   113.9730   120.0020 ca         1 JDW       0.032700
     11 C15        113.5490   113.5670   121.6920 ca         1 JDW       0.045000
     12 C14        114.3440   114.4990   121.0880 ca         1 JDW      -0.201000
     13 C13        113.9060   115.1550   119.9370 ca         1 JDW       0.050900
     14 C11        115.8520   115.6130   118.4020 ca         1 JDW       0.050900
     15 C1         117.8190   117.9870   119.6380 c3         1 JDW      -0.121600
     16 C18        111.4200   112.3530   121.7810 ca         1 JDW      -0.069000
     17 C19        110.1800   112.1100   121.2640 ca         1 JDW      -0.084500
     18 C20        109.7640   112.7990   120.1120 ca         1 JDW      -0.019000
     19 C21        110.5730   113.7120   119.4860 ca         1 JDW      -0.164500
     20 C23        111.4250   116.7810   118.4570 c3         1 JDW      -0.121600
     21 C9         116.7400   113.7780   117.1450 ca         1 JDW       0.045000
     22 N1         116.8480   116.4020   117.9830 na         1 JDW       0.031400
     23 N2         112.7140   114.8770   119.4060 na         1 JDW       0.031400
     24 H1         117.2470   118.4090   117.5850 h1         1 JDW       0.088200
     25 H2         115.9110   118.1560   118.6410 h1         1 JDW       0.088200
     26 H3         119.0340   117.7620   117.0750 ha         1 JDW       0.169000
     27 H4         120.7200   116.8490   115.6350 ha         1 JDW       0.181000
     28 H5         120.6250   114.5060   114.8360 ha         1 JDW       0.187000
     29 H6         118.7480   113.0540   115.5460 ha         1 JDW       0.176000
     30 H7         114.9770   113.6510   118.3140 ha         1 JDW       0.178000
     31 H8         113.8860   113.0500   122.5810 ha         1 JDW       0.189000
     32 H9         115.3190   114.7450   121.4850 ha         1 JDW       0.178000
     33 H10        115.3240   116.6610   120.1820 hc         1 JDW       0.115700
     34 H11        114.2660   116.9900   118.8480 hc         1 JDW       0.115700
     35 H12        117.8340   119.0420   119.9070 hc         1 JDW       0.075367
     36 H13        117.4570   117.4260   120.4990 hc         1 JDW       0.075367
     37 H14        118.8430   117.6770   119.4380 hc         1 JDW       0.075367
     38 H15        111.7670   111.8400   122.6690 ha         1 JDW       0.176000
     39 H16        109.5190   111.3950   121.7330 ha         1 JDW       0.187000
     40 H17        108.7790   112.6120   119.7050 ha         1 JDW       0.181000
     41 H18        110.1950   114.2140   118.6100 ha         1 JDW       0.169000
     42 H19        111.7420   114.8260   117.5630 h1         1 JDW       0.088200
     43 H20        113.1510   115.8170   117.5850 h1         1 JDW       0.088200
     44 H21        111.1170   117.2220   117.5100 hc         1 JDW       0.075367
     45 H22        110.5280   116.5350   119.0220 hc         1 JDW       0.075367
     46 H23        111.9830   117.5320   119.0140 hc         1 JDW       0.075367
     47 H24        116.6840   112.7490   116.8130 ha         1 JDW       0.189000
     48 C12        114.8190   116.1870   119.3380 c3         1 JDW      -0.038800
     49 C22        112.2720   115.5570   118.1660 c3         1 JDW      -0.003700
@<TRIPOS>BOND
     1     1    15 1   
     2     1    22 1   
     3     1    24 1   
     4     1    25 1   
     5     2     3 ar  
     6     2     7 ar  
     7     2    22 2   
     8     3     4 ar  
     9     3    26 1   
    10     4     5 ar  
    11     4    27 1   
    12     5     6 ar  
    13     5    28 1   
    14     6     7 ar  
    15     6    29 1   
    16     7    21 ar  
    17     8    14 ar  
    18     8    21 ar  
    19     8    30 1   
    20     9    10 ar  
    21     9    11 ar  
    22     9    16 ar  
    23    10    19 ar  
    24    10    23 1   
    25    11    12 ar  
    26    11    31 1   
    27    12    13 ar  
    28    12    32 1   
    29    13    23 2   
    30    13    48 1   
    31    14    22 1   
    32    14    48 1   
    33    15    35 1   
    34    15    36 1   
    35    15    37 1   
    36    16    17 ar  
    37    16    38 1   
    38    17    18 ar  
    39    17    39 1   
    40    18    19 ar  
    41    18    40 1   
    42    19    41 1   
    43    20    44 1   
    44    20    45 1   
    45    20    46 1   
    46    20    49 1   
    47    21    47 1   
    48    23    49 1   
    49    33    48 1   
    50    34    48 1   
    51    42    49 1   
    52    43    49 1   
@<TRIPOS>SUBSTRUCTURE
     1 JDW         1 TEMP              0 ****  ****    0 ROOT
