@<TRIPOS>MOLECULE
JDX
   60    62     1     0     0
SMALL
bcc


@<TRIPOS>ATOM
      1 C15          0.9350    -5.0710    -0.9560 ca         1 JDX      -0.146000
      2 C16         -0.3850    -5.4750    -1.0720 ca         1 JDX      -0.132000
      3 C14          1.2430    -3.9520    -0.1930 ca         1 JDX      -0.114000
      4 C17         -1.3850    -4.7490    -0.4360 ca         1 JDX      -0.142000
      5 C23         -5.0440     0.7430     0.0020 ca         1 JDX      -0.177000
      6 C6           2.9070     1.4740    -0.1670 ca         1 JDX      -0.078000
      7 C10          4.4260     0.2010     1.1620 ca         1 JDX      -0.078000
      8 C24         -5.4520     1.9110    -0.6140 ca         1 JDX      -0.133000
      9 C7           3.9690     2.0330    -0.8540 ca         1 JDX      -0.204000
     10 C9           5.5070     0.7530     0.4840 ca         1 JDX      -0.204000
     11 C13          0.2430    -3.2360     0.4590 ca         1 JDX      -0.102600
     12 C30         -2.7670     1.5410     0.0580 ca         1 JDX      -0.114600
     13 C5           3.1180     0.5500     0.8580 ca         1 JDX      -0.121300
     14 C18         -1.0930    -3.6280     0.3330 ca         1 JDX      -0.023300
     15 C22         -3.7050     0.5550     0.3500 ca         1 JDX      -0.054300
     16 C25         -4.5310     2.9110    -0.8990 ca         1 JDX      -0.234000
     17 C29         -3.1930     2.7200    -0.5680 ca         1 JDX       0.140100
     18 C8           5.2810     1.6780    -0.5320 ca         1 JDX       0.120100
     19 C2           0.6600    -2.1320     1.3860 c          1 JDX       0.689700
     20 C4           1.9540    -0.0620     1.5860 c3         1 JDX       0.136300
     21 C19         -2.2140    -2.8270     0.9410 c3         1 JDX       0.198100
     22 C21         -3.3110    -0.7290     1.0340 c3         1 JDX       0.218100
     23 N3           1.4250    -1.1860     0.8310 ns         1 JDX      -0.532900
     24 N20         -2.4140    -1.5640     0.2490 n3         1 JDX      -0.674600
     25 O33         -0.5040     1.2530    -0.5240 o          1 JDX      -0.825300
     26 O1           0.3970    -2.1780     2.5820 o          1 JDX      -0.625100
     27 O32         -1.0390     1.4880     1.6390 o          1 JDX      -0.825300
     28 O28         -2.2320     3.6450    -0.7960 os         1 JDX      -0.283900
     29 C20         -2.8850    -1.7680    -1.1030 c3         1 JDX       0.149100
     30 O11          6.2550     2.2760    -1.2460 os         1 JDX      -0.326900
     31 H15          1.7240    -5.6230    -1.4490 ha         1 JDX       0.119000
     32 H16         -0.6410    -6.3470    -1.6590 ha         1 JDX       0.117000
     33 H14          2.2760    -3.6460    -0.0880 ha         1 JDX       0.134000
     34 H17         -2.4190    -5.0540    -0.5480 ha         1 JDX       0.122000
     35 H23         -5.7650    -0.0370     0.2160 ha         1 JDX       0.106000
     36 H24         -6.4930     2.0560    -0.8770 ha         1 JDX       0.102000
     37 H6           1.8890     1.7450    -0.4270 ha         1 JDX       0.159500
     38 H7           3.7920     2.7510    -1.6460 ha         1 JDX       0.128500
     39 H10          4.6190    -0.5160     1.9530 ha         1 JDX       0.159500
     40 H9           6.5080     0.4530     0.7640 ha         1 JDX       0.128500
     41 H25         -4.8730     3.8220    -1.3730 ha         1 JDX       0.110000
     42 H41C         2.2770    -0.4290     2.5610 h1         1 JDX       0.085200
     43 H42C         1.1640     0.6740     1.7440 h1         1 JDX       0.085200
     44 H191        -3.1320    -3.4400     0.9350 h1         1 JDX       0.041700
     45 H192        -1.9920    -2.6110     1.9860 h1         1 JDX       0.041700
     46 H211        -2.8060    -0.5030     1.9770 h1         1 JDX       0.038700
     47 H212        -4.2360    -1.2730     1.2920 h1         1 JDX       0.038700
     48 H3           1.3970    -1.0870    -0.1710 hn         1 JDX       0.327500
     49 H271        -3.3190     5.4250    -0.7530 h1         1 JDX       0.022367
     50 H272        -1.6920     5.4670    -1.4560 h1         1 JDX       0.022367
     51 H273        -3.0300     4.7550    -2.3720 h1         1 JDX       0.022367
     52 H121         7.8790     2.2030     0.0610 h1         1 JDX       0.030367
     53 H122         7.8010     0.8820    -1.1250 h1         1 JDX       0.030367
     54 H123         8.2130     2.5230    -1.6490 h1         1 JDX       0.030367
     55 H201        -3.8700    -2.2600    -1.1540 h1         1 JDX       0.026367
     56 H202        -2.9580    -0.8160    -1.6270 h1         1 JDX       0.026367
     57 H203        -2.1780    -2.3860    -1.6550 h1         1 JDX       0.026367
     58 C31         -1.2930     1.3990     0.4230 c          1 JDX       0.953200
     59 C27         -2.6030     4.8780    -1.3730 c3         1 JDX       0.130700
     60 C12          7.5990     1.9440    -0.9640 c3         1 JDX       0.131700
@<TRIPOS>BOND
     1     1     2 ar  
     2     1     3 ar  
     3     1    31 1   
     4     2     4 ar  
     5     2    32 1   
     6     3    11 ar  
     7     3    33 1   
     8     4    14 ar  
     9     4    34 1   
    10     5     8 ar  
    11     5    15 ar  
    12     5    35 1   
    13     6     9 ar  
    14     6    13 ar  
    15     6    37 1   
    16     7    10 ar  
    17     7    13 ar  
    18     7    39 1   
    19     8    16 ar  
    20     8    36 1   
    21     9    18 ar  
    22     9    38 1   
    23    10    18 ar  
    24    10    40 1   
    25    11    14 ar  
    26    11    19 1   
    27    12    15 ar  
    28    12    17 ar  
    29    12    58 1   
    30    13    20 1   
    31    14    21 1   
    32    15    22 1   
    33    16    17 ar  
    34    16    41 1   
    35    17    28 1   
    36    18    30 1   
    37    19    23 1   
    38    19    26 2   
    39    20    23 1   
    40    20    42 1   
    41    20    43 1   
    42    21    24 1   
    43    21    44 1   
    44    21    45 1   
    45    22    24 1   
    46    22    46 1   
    47    22    47 1   
    48    23    48 1   
    49    24    29 1   
    50    25    58 1   
    51    27    58 1   
    52    28    59 1   
    53    29    55 1   
    54    29    56 1   
    55    29    57 1   
    56    30    60 1   
    57    49    59 1   
    58    50    59 1   
    59    51    59 1   
    60    52    60 1   
    61    53    60 1   
    62    54    60 1   
@<TRIPOS>SUBSTRUCTURE
     1 JDX         1 TEMP              0 ****  ****    0 ROOT
