@<TRIPOS>MOLECULE
JDX
   60    62     1     0     0
SMALL
No Charge or Current Charge


@<TRIPOS>ATOM
      1 C15          1.0040    -5.0920    -0.8150 ca         1 JDX      -0.128000
      2 C16         -0.3210    -5.5170    -0.9660 ca         1 JDX      -0.114000
      3 C14          1.2930    -3.9490    -0.0540 ca         1 JDX      -0.096000
      4 C17         -1.3580    -4.7930    -0.3600 ca         1 JDX      -0.124000
      5 C23         -5.1710     0.6260    -0.4560 ca         1 JDX      -0.159000
      6 C6           3.1380     1.4900    -0.1330 ca         1 JDX      -0.060000
      7 C10          4.7130     0.0730     1.0610 ca         1 JDX      -0.060000
      8 C24         -5.5470     1.8020    -1.1200 ca         1 JDX      -0.115000
      9 C7           4.1990     2.0430    -0.8710 ca         1 JDX      -0.186000
     10 C9           5.7750     0.6260     0.3220 ca         1 JDX      -0.186000
     11 C13          0.2600    -3.2110     0.5750 ca         1 JDX      -0.102600
     12 C30         -3.0830     1.6780     0.2470 ca         1 JDX      -0.114600
     13 C5           3.3910     0.5040     0.8380 ca         1 JDX      -0.121300
     14 C18         -1.0880    -3.6390     0.4080 ca         1 JDX      -0.023300
     15 C22         -3.9420     0.5480     0.2310 ca         1 JDX      -0.054300
     16 C25         -4.7010     2.9190    -1.1010 ca         1 JDX      -0.216000
     17 C29         -3.4660     2.8640    -0.4160 ca         1 JDX       0.140100
     18 C8           5.5180     1.6170    -0.6500 ca         1 JDX       0.120100
     19 C2           0.6270    -2.0030     1.4160 c          1 JDX       0.622700
     20 C4           2.2430    -0.0980     1.6330 c3         1 JDX       0.136300
     21 C19         -2.2830    -2.8560     0.9670 c3         1 JDX       0.198100
     22 C21         -3.5740    -0.7620     0.9390 c3         1 JDX       0.218100
     23 N3           1.7010    -1.2750     0.9600 ns         1 JDX      -0.465900
     24 N20         -2.5850    -1.6060     0.2200 n3         1 JDX      -0.674600
     25 O33         -0.7390     1.5890     0.3130 o          1 JDX      -0.720000
     26 O1           0.0920    -1.7340     2.4840 o          1 JDX      -0.625100
     27 O32         -1.7870     1.7440     2.1940 o          1 JDX      -0.720000
     28 O28         -2.6190     3.9560    -0.3640 os         1 JDX      -0.307100
     29 C20         -2.9460    -1.8580    -1.1960 c3         1 JDX       0.149100
     30 O11          6.5180     2.1950    -1.4050 os         1 JDX      -0.350100
     31 H15          1.8110    -5.6520    -1.2840 ha         1 JDX       0.101000
     32 H16         -0.5460    -6.4020    -1.5570 ha         1 JDX       0.099000
     33 H14          2.3340    -3.6580     0.0680 ha         1 JDX       0.116000
     34 H17         -2.3850    -5.1220    -0.5030 ha         1 JDX       0.104000
     35 H23         -5.8370    -0.2330    -0.4790 ha         1 JDX       0.088000
     36 H24         -6.4980     1.8470    -1.6470 ha         1 JDX       0.084000
     37 H6           2.1190     1.8270    -0.3170 ha         1 JDX       0.141500
     38 H7           3.9970     2.8040    -1.6200 ha         1 JDX       0.110500
     39 H10          4.9190    -0.6930     1.8080 ha         1 JDX       0.141500
     40 H9           6.7830     0.2730     0.5180 ha         1 JDX       0.110500
     41 H25         -5.0220     3.8170    -1.6200 ha         1 JDX       0.092000
     42 H41C         2.5910    -0.3860     2.6350 h1         1 JDX       0.085200
     43 H42C         1.4440     0.6450     1.7580 h1         1 JDX       0.085200
     44 H191        -3.1680    -3.5070     0.9510 h1         1 JDX       0.041700
     45 H192        -2.1070    -2.6370     2.0270 h1         1 JDX       0.041700
     46 H211        -3.1960    -0.5230     1.9410 h1         1 JDX       0.038700
     47 H212        -4.4970    -1.3390     1.0940 h1         1 JDX       0.038700
     48 H3           2.0970    -1.5480     0.0700 hn         1 JDX       0.327500
     49 H271        -3.8530     5.6310    -0.6080 h1         1 JDX       0.022367
     50 H272        -2.1170     5.9260    -0.8400 h1         1 JDX       0.022367
     51 H273        -3.0380     5.0650    -2.0910 h1         1 JDX       0.022367
     52 H121         8.2490     2.0320    -0.2340 h1         1 JDX       0.030367
     53 H122         8.0480     0.7630    -1.4730 h1         1 JDX       0.030367
     54 H123         8.5240     2.4070    -1.9480 h1         1 JDX       0.030367
     55 H201        -3.8880    -2.4190    -1.2650 h1         1 JDX       0.026367
     56 H202        -3.0650    -0.9160    -1.7480 h1         1 JDX       0.026367
     57 H203        -2.1640    -2.4330    -1.7070 h1         1 JDX       0.026367
     58 C31         -1.7680     1.6410     0.9740 c          1 JDX       0.742600
     59 C27         -2.9260     5.2040    -1.0090 c3         1 JDX       0.153900
     60 C12          7.9010     1.8290    -1.2550 c3         1 JDX       0.154900
@<TRIPOS>BOND
     1     1     2 ar  
     2     1     3 ar  
     3     1    31 1   
     4     2     4 ar  
     5     2    32 1   
     6     3    11 ar  
     7     3    33 1   
     8     4    14 ar  
     9     4    34 1   
    10     5     8 ar  
    11     5    15 ar  
    12     5    35 1   
    13     6     9 ar  
    14     6    13 ar  
    15     6    37 1   
    16     7    10 ar  
    17     7    13 ar  
    18     7    39 1   
    19     8    16 ar  
    20     8    36 1   
    21     9    18 ar  
    22     9    38 1   
    23    10    18 ar  
    24    10    40 1   
    25    11    14 ar  
    26    11    19 1   
    27    12    15 ar  
    28    12    17 ar  
    29    12    58 1   
    30    13    20 1   
    31    14    21 1   
    32    15    22 1   
    33    16    17 ar  
    34    16    41 1   
    35    17    28 1   
    36    18    30 1   
    37    19    23 1   
    38    19    26 2   
    39    20    23 1   
    40    20    42 1   
    41    20    43 1   
    42    21    24 1   
    43    21    44 1   
    44    21    45 1   
    45    22    24 1   
    46    22    46 1   
    47    22    47 1   
    48    23    48 1   
    49    24    29 1   
    50    25    58 1   
    51    27    58 1   
    52    28    59 1   
    53    29    55 1   
    54    29    56 1   
    55    29    57 1   
    56    30    60 1   
    57    49    59 1   
    58    50    59 1   
    59    51    59 1   
    60    52    60 1   
    61    53    60 1   
    62    54    60 1   
@<TRIPOS>SUBSTRUCTURE
     1 JDX         1 TEMP              0 ****  ****    0 ROOT
