@<TRIPOS>MOLECULE
JDY
   88    94     1     0     0
SMALL
No Charge or Current Charge


@<TRIPOS>ATOM
      1 CAA         -6.2300   -18.0190    20.5500 c5         1 JDY       0.381300
      2 CAC         -5.8920   -17.1750    18.3900 c5         1 JDY       0.167600
      3 CAD         -6.6880   -16.0570    19.1320 c5         1 JDY      -0.119700
      4 CAE         -6.4330   -16.4460    20.6140 c5         1 JDY      -0.126700
      5 CAF         -8.2630   -16.1470    18.9770 c5         1 JDY       0.196300
      6 CAG         -8.7640   -16.7810    20.3190 c5         1 JDY      -0.099700
      7 CAH         -7.7890   -16.0800    21.3020 c5         1 JDY      -0.068400
      8 CAJ         -8.6720   -18.3240    20.4440 c6         1 JDY       0.163600
      9 CAO         -8.7380   -17.1120    14.2310 c3         1 JDY       0.095700
     10 CAS         -9.2830   -15.2200     9.3020 ca         1 JDY      -0.338500
     11 CAT        -10.1350   -17.1040    13.5350 c3         1 JDY       0.154300
     12 CAW         -7.7110   -18.1160    13.6380 c3         1 JDY      -0.039100
     13 CAX        -10.0630   -14.2690     8.6120 ca         1 JDY       0.045000
     14 CAY        -10.6780   -14.6530     7.4130 ca         1 JDY      -0.227000
     15 CAZ        -10.5370   -15.9230     6.8880 ca         1 JDY       0.203400
     16 CBA         -9.7560   -16.8720     7.5610 ca         1 JDY      -0.105000
     17 CBB         -9.1240   -16.5220     8.7700 ca         1 JDY      -0.008000
     18 CBD        -11.8260   -15.0620     5.3580 cc         1 JDY       0.669100
     19 CBG        -13.2910   -14.0550     3.5680 cx         1 JDY       0.142500
     20 CBH         -6.3440   -18.0330    14.3130 ca         1 JDY      -0.065300
     21 CBI         -5.8430   -19.1230    15.0530 ca         1 JDY      -0.131000
     22 CBJ         -4.5860   -19.0440    15.6800 ca         1 JDY      -0.080000
     23 CBK         -3.8220   -17.8690    15.5720 ca         1 JDY      -0.149000
     24 CBL         -4.3170   -16.7820    14.8350 ca         1 JDY       0.157000
     25 CBM         -5.5690   -16.8610    14.2060 ca         1 JDY      -0.132000
     26 CBN        -14.6660   -13.7600     4.1120 cx         1 JDY      -0.123900
     27 CBO        -14.5140   -14.4570     2.7820 cx         1 JDY      -0.123900
     28 CBR        -10.8570   -14.1300    11.9230 c3         1 JDY       0.206800
     29 CBS        -11.7950   -14.0680    13.1580 c3         1 JDY      -0.064700
     30 CBT        -13.0020   -13.1410    12.8890 c3         1 JDY      -0.091100
     31 CBU        -11.0450   -13.6280    14.4400 c3         1 JDY      -0.091100
     32 FBP         -3.5840   -15.6530    14.7320 f          1 JDY      -0.186000
     33 NAN         -8.8640   -17.3190    15.6820 ns         1 JDY      -0.501900
     34 NBE        -11.1970   -16.1810     5.6920 nd         1 JDY      -0.651100
     35 NBF        -12.5430   -15.0980     4.2050 nu         1 JDY      -0.853400
     36 OAB         -6.0650   -18.3770    19.1650 os         1 JDY      -0.481000
     37 OAI         -7.4060   -18.7250    21.0120 os         1 JDY      -0.461000
     38 OAK         -8.6710   -16.9810    17.8610 os         1 JDY      -0.461100
     39 OAM         -8.1560   -15.2580    16.4070 o          1 JDY      -0.533000
     40 OAU         -7.3980   -15.6980    11.1480 o          1 JDY      -0.546000
     41 OAV         -8.2490   -13.3170    10.8710 o          1 JDY      -0.546000
     42 OBQ        -10.7000   -18.4320    13.5070 oh         1 JDY      -0.672000
     43 SAR         -8.4870   -14.7640    10.8500 sy         1 JDY       1.199600
     44 SBC        -11.6930   -13.6320     6.4090 ss         1 JDY      -0.015200
     45 HAA         -5.3500   -18.3260    21.1320 h2         1 JDY       0.092700
     46 HAD         -6.2050   -17.3420    17.3530 h1         1 JDY       0.058700
     47 HAC         -4.8200   -16.9320    18.3740 h1         1 JDY       0.058700
     48 HAE         -6.3230   -15.0540    18.8840 hc         1 JDY       0.087700
     49 HAF         -5.5670   -15.9380    21.0540 hc         1 JDY       0.077700
     50 HAG         -8.7010   -15.1440    18.8690 h1         1 JDY       0.066700
     51 HAH         -9.8100   -16.5170    20.5110 hc         1 JDY       0.071700
     52 HAI         -7.9490   -14.9950    21.3470 hc         1 JDY       0.061700
     53 HAJ         -7.8660   -16.4610    22.3280 hc         1 JDY       0.061700
     54 HAK         -9.4680   -18.6910    21.1070 h1         1 JDY       0.057700
     55 HAL         -8.8080   -18.8150    19.4710 h1         1 JDY       0.057700
     56 HAO         -8.3210   -16.1070    14.0760 h1         1 JDY       0.107700
     57 HAQ        -11.0990   -16.6460    11.6430 h1         1 JDY       0.063700
     58 HAP         -9.4350   -17.1470    11.5050 h1         1 JDY       0.063700
     59 HAT        -10.7840   -16.4620    14.1410 h1         1 JDY       0.058700
     60 HAX         -8.1110   -19.1340    13.7250 hc         1 JDY       0.062200
     61 HAW         -7.5910   -17.9350    12.5660 hc         1 JDY       0.062200
     62 HAY        -10.1940   -13.2570     8.9960 ha         1 JDY       0.139000
     63 HBA         -9.6380   -17.8710     7.1500 ha         1 JDY       0.136000
     64 HBB         -8.5140   -17.2630     9.2840 ha         1 JDY       0.135000
     65 HBG        -12.6990   -13.2130     3.1990 h1         1 JDY       0.091700
     66 HBI         -6.4290   -20.0350    15.1490 ha         1 JDY       0.109000
     67 HBJ         -4.2090   -19.8890    16.2520 ha         1 JDY       0.121000
     68 HBK         -2.8510   -17.8000    16.0560 ha         1 JDY       0.131000
     69 HBM         -5.9330   -16.0100    13.6350 ha         1 JDY       0.164000
     70 HBO        -14.9960   -12.7240     4.1080 hc         1 JDY       0.085200
     71 HBN        -15.0190   -14.3470     4.9560 hc         1 JDY       0.085200
     72 HBQ        -14.7410   -13.8900     1.8830 hc         1 JDY       0.085200
     73 HBP        -14.7710   -15.5120     2.7320 hc         1 JDY       0.085200
     74 HBR        -10.4990   -13.1040    11.7690 h1         1 JDY       0.051700
     75 HBS        -11.4670   -14.3790    11.0430 h1         1 JDY       0.051700
     76 HBT        -12.2110   -15.0670    13.3270 hc         1 JDY       0.047700
     77 HBV        -13.6860   -13.1360    13.7460 hc         1 JDY       0.040033
     78 HBW        -12.6720   -12.1110    12.7060 hc         1 JDY       0.040033
     79 HBU        -13.5640   -13.4820    12.0110 hc         1 JDY       0.040033
     80 HBY        -11.7120   -13.6560    15.3090 hc         1 JDY       0.040033
     81 HBZ        -10.1930   -14.2850    14.6480 hc         1 JDY       0.040033
     82 HBX        -10.6620   -12.6060    14.3340 hc         1 JDY       0.040033
     83 HAN         -9.1120   -18.2350    16.0310 hn         1 JDY       0.320500
     84 HBF        -12.4520   -16.0140     3.7720 hn         1 JDY       0.514000
     85 HB0        -10.9690   -18.6520    14.4260 ho         1 JDY       0.449000
     86 CAL         -8.5280   -16.3990    16.6330 c          1 JDY       0.635100
     87 CAP        -10.1060   -16.5100    12.0930 c3         1 JDY       0.216800
     88 NAQ         -9.7060   -15.0720    12.0080 n3         1 JDY      -0.750500
@<TRIPOS>BOND
     1     1     4 1   
     2     1    36 1   
     3     1    37 1   
     4     1    45 1   
     5     2     3 1   
     6     2    36 1   
     7     2    46 1   
     8     2    47 1   
     9     3     4 1   
    10     3     5 1   
    11     3    48 1   
    12     4     7 1   
    13     4    49 1   
    14     5     6 1   
    15     5    38 1   
    16     5    50 1   
    17     6     7 1   
    18     6     8 1   
    19     6    51 1   
    20     7    52 1   
    21     7    53 1   
    22     8    37 1   
    23     8    54 1   
    24     8    55 1   
    25     9    11 1   
    26     9    12 1   
    27     9    33 1   
    28     9    56 1   
    29    10    13 ar  
    30    10    17 ar  
    31    10    43 1   
    32    11    42 1   
    33    11    59 1   
    34    11    87 1   
    35    12    20 1   
    36    12    60 1   
    37    12    61 1   
    38    13    14 ar  
    39    13    62 1   
    40    14    15 ar  
    41    14    44 1   
    42    15    16 ar  
    43    15    34 1   
    44    16    17 ar  
    45    16    63 1   
    46    17    64 1   
    47    18    34 2   
    48    18    35 1   
    49    18    44 1   
    50    19    26 1   
    51    19    27 1   
    52    19    35 1   
    53    19    65 1   
    54    20    21 ar  
    55    20    25 ar  
    56    21    22 ar  
    57    21    66 1   
    58    22    23 ar  
    59    22    67 1   
    60    23    24 ar  
    61    23    68 1   
    62    24    25 ar  
    63    24    32 1   
    64    25    69 1   
    65    26    27 1   
    66    26    70 1   
    67    26    71 1   
    68    27    72 1   
    69    27    73 1   
    70    28    29 1   
    71    28    74 1   
    72    28    75 1   
    73    28    88 1   
    74    29    30 1   
    75    29    31 1   
    76    29    76 1   
    77    30    77 1   
    78    30    78 1   
    79    30    79 1   
    80    31    80 1   
    81    31    81 1   
    82    31    82 1   
    83    33    83 1   
    84    33    86 1   
    85    35    84 1   
    86    38    86 1   
    87    39    86 2   
    88    40    43 2   
    89    41    43 2   
    90    42    85 1   
    91    43    88 1   
    92    57    87 1   
    93    58    87 1   
    94    87    88 1   
@<TRIPOS>SUBSTRUCTURE
     1 JDY         1 TEMP              0 ****  ****    0 ROOT
