@<TRIPOS>MOLECULE
JDY
   88    94     1     0     0
SMALL
abcg2


@<TRIPOS>ATOM
      1 CAA         -5.4900   -17.0690    20.1690 c5         1 JDY       0.381300
      2 CAC         -5.6720   -16.4770    17.8950 c5         1 JDY       0.167600
      3 CAD         -6.5630   -15.5160    18.6610 c5         1 JDY      -0.119700
      4 CAE         -6.0380   -15.6220    20.1080 c5         1 JDY      -0.126700
      5 CAF         -8.0620   -15.9120    18.7990 c5         1 JDY       0.196300
      6 CAG         -8.2270   -16.4390    20.2320 c5         1 JDY      -0.099700
      7 CAH         -7.2800   -15.5030    20.9940 c5         1 JDY      -0.068400
      8 CAJ         -7.7320   -17.8860    20.4220 c6         1 JDY       0.163600
      9 CAO         -9.0840   -17.4680    14.3540 c3         1 JDY       0.095700
     10 CAS         -9.5650   -15.3330     9.6750 ca         1 JDY      -0.338500
     11 CAT        -10.5270   -17.5450    13.8300 c3         1 JDY       0.154300
     12 CAW         -8.1680   -18.5490    13.7600 c3         1 JDY      -0.039100
     13 CAX        -10.2610   -14.3480     8.9730 ca         1 JDY       0.045000
     14 CAY        -10.5680   -14.6030     7.6500 ca         1 JDY      -0.227000
     15 CAZ        -10.2010   -15.8130     7.0100 ca         1 JDY       0.203400
     16 CBA         -9.5050   -16.7800     7.7410 ca         1 JDY      -0.105000
     17 CBB         -9.1920   -16.5390     9.0680 ca         1 JDY      -0.008000
     18 CBD        -11.2000   -14.8440     5.2930 cc         1 JDY       0.669100
     19 CBG        -12.2270   -13.4230     3.5940 cx         1 JDY       0.142500
     20 CBH         -6.7470   -18.4450    14.2490 ca         1 JDY      -0.065300
     21 CBI         -6.2370   -19.3720    15.1590 ca         1 JDY      -0.131000
     22 CBJ         -4.9280   -19.2780    15.6190 ca         1 JDY      -0.080000
     23 CBK         -4.0970   -18.2540    15.1790 ca         1 JDY      -0.149000
     24 CBL         -4.6240   -17.3430    14.2820 ca         1 JDY       0.157000
     25 CBM         -5.9200   -17.4090    13.8090 ca         1 JDY      -0.132000
     26 CBN        -13.5980   -13.0060     4.0640 cx         1 JDY      -0.123900
     27 CBO        -13.3880   -13.4730     2.6510 cx         1 JDY      -0.123900
     28 CBR        -11.7510   -14.8340    12.1300 c3         1 JDY       0.206800
     29 CBS        -12.5360   -14.7410    13.4400 c3         1 JDY      -0.064700
     30 CBT        -13.8500   -14.0070    13.1710 c3         1 JDY      -0.091100
     31 CBU        -11.7260   -14.0500    14.5350 c3         1 JDY      -0.091100
     32 FBP         -3.8260   -16.3330    13.8400 f          1 JDY      -0.186000
     33 NAN         -9.0600   -17.5410    15.8070 ns         1 JDY      -0.501900
     34 NBE        -10.5640   -15.9170     5.6890 nd         1 JDY      -0.651100
     35 NBF        -11.6920   -14.6670     4.0570 nu         1 JDY      -0.853400
     36 OAB         -5.2800   -17.4960    18.8290 os         1 JDY      -0.481000
     37 OAI         -6.3570   -17.9530    20.8360 os         1 JDY      -0.461000
     38 OAK         -8.5160   -16.9000    17.8610 os         1 JDY      -0.461100
     39 OAM         -8.4850   -15.3600    16.1920 o          1 JDY      -0.533000
     40 OAU         -8.0970   -15.9330    11.7340 o          1 JDY      -0.546000
     41 OAV         -9.1130   -13.6610    11.6230 o          1 JDY      -0.546000
     42 OBQ        -11.0580   -18.8710    13.8620 oh         1 JDY      -0.672000
     43 SAR         -9.2120   -15.0820    11.3860 sy         1 JDY       1.199600
     44 SBC        -11.4110   -13.5760     6.5150 ss         1 JDY      -0.015200
     45 HAA         -4.5490   -17.1450    20.7150 h2         1 JDY       0.092700
     46 HAD         -6.1520   -16.9670    17.0500 h1         1 JDY       0.058700
     47 HAC         -4.7820   -15.9570    17.5300 h1         1 JDY       0.058700
     48 HAE         -6.4810   -14.5100    18.2560 hc         1 JDY       0.087700
     49 HAF         -5.2470   -14.9090    20.3320 hc         1 JDY       0.077700
     50 HAG         -8.6750   -15.0220    18.6710 h1         1 JDY       0.066700
     51 HAH         -9.2660   -16.3720    20.5510 hc         1 JDY       0.071700
     52 HAI         -7.6560   -14.4790    21.0000 hc         1 JDY       0.061700
     53 HAJ         -7.1070   -15.8170    22.0230 hc         1 JDY       0.061700
     54 HAK         -8.2880   -18.3610    21.2290 h1         1 JDY       0.057700
     55 HAL         -7.8730   -18.4730    19.5140 h1         1 JDY       0.057700
     56 HAO         -8.6980   -16.4860    14.0930 h1         1 JDY       0.107700
     57 HAQ        -11.6840   -17.3330    12.0440 h1         1 JDY       0.063700
     58 HAP         -9.9780   -17.6040    11.7410 h1         1 JDY       0.063700
     59 HAT        -11.1300   -16.8980    14.4700 h1         1 JDY       0.058700
     60 HAX         -8.5690   -19.5300    14.0150 hc         1 JDY       0.062200
     61 HAW         -8.1920   -18.4590    12.6740 hc         1 JDY       0.062200
     62 HAY        -10.5340   -13.4170     9.4470 ha         1 JDY       0.139000
     63 HBA         -9.2110   -17.7060     7.2640 ha         1 JDY       0.136000
     64 HBB         -8.6420   -17.2750     9.6360 ha         1 JDY       0.135000
     65 HBG        -11.4950   -12.6360     3.4440 h1         1 JDY       0.091700
     66 HBI         -6.8730   -20.1750    15.5100 ha         1 JDY       0.109000
     67 HBJ         -4.5500   -20.0040    16.3280 ha         1 JDY       0.121000
     68 HBK         -3.0770   -18.1560    15.5230 ha         1 JDY       0.131000
     69 HBM         -6.2800   -16.6670    13.1090 ha         1 JDY       0.164000
     70 HBO        -13.7600   -11.9520     4.2470 hc         1 JDY       0.085200
     71 HBN        -14.1080   -13.6780     4.7410 hc         1 JDY       0.085200
     72 HBQ        -13.4090   -12.7430     1.8530 hc         1 JDY       0.085200
     73 HBP        -13.7640   -14.4530     2.3890 hc         1 JDY       0.085200
     74 HBR        -11.4830   -13.8270    11.8170 h1         1 JDY       0.051700
     75 HBS        -12.3780   -15.2770    11.3500 h1         1 JDY       0.051700
     76 HBT        -12.7840   -15.7550    13.7690 hc         1 JDY       0.047700
     77 HBV        -14.4500   -13.9480    14.0800 hc         1 JDY       0.040033
     78 HBW        -13.6580   -12.9860    12.8280 hc         1 JDY       0.040033
     79 HBU        -14.4400   -14.5150    12.4060 hc         1 JDY       0.040033
     80 HBY        -12.2900   -14.0250    15.4700 hc         1 JDY       0.040033
     81 HBZ        -10.7800   -14.5580    14.7230 hc         1 JDY       0.040033
     82 HBX        -11.5020   -13.0190    14.2480 hc         1 JDY       0.040033
     83 HAN         -9.0940   -18.4470    16.2500 hn         1 JDY       0.320500
     84 HBF        -11.4530   -15.3770     3.3780 hn         1 JDY       0.514000
     85 HB0        -11.1540   -19.1460    14.7830 ho         1 JDY       0.449000
     86 CAL         -8.6720   -16.5030    16.5770 c          1 JDY       0.635100
     87 CAP        -10.6800   -17.0750    12.3820 c3         1 JDY       0.216800
     88 NAQ        -10.5070   -15.6210    12.2460 n3         1 JDY      -0.750500
@<TRIPOS>BOND
     1     1     4 1   
     2     1    36 1   
     3     1    37 1   
     4     1    45 1   
     5     2     3 1   
     6     2    36 1   
     7     2    46 1   
     8     2    47 1   
     9     3     4 1   
    10     3     5 1   
    11     3    48 1   
    12     4     7 1   
    13     4    49 1   
    14     5     6 1   
    15     5    38 1   
    16     5    50 1   
    17     6     7 1   
    18     6     8 1   
    19     6    51 1   
    20     7    52 1   
    21     7    53 1   
    22     8    37 1   
    23     8    54 1   
    24     8    55 1   
    25     9    11 1   
    26     9    12 1   
    27     9    33 1   
    28     9    56 1   
    29    10    13 ar  
    30    10    17 ar  
    31    10    43 1   
    32    11    42 1   
    33    11    59 1   
    34    11    87 1   
    35    12    20 1   
    36    12    60 1   
    37    12    61 1   
    38    13    14 ar  
    39    13    62 1   
    40    14    15 ar  
    41    14    44 1   
    42    15    16 ar  
    43    15    34 1   
    44    16    17 ar  
    45    16    63 1   
    46    17    64 1   
    47    18    34 2   
    48    18    35 1   
    49    18    44 1   
    50    19    26 1   
    51    19    27 1   
    52    19    35 1   
    53    19    65 1   
    54    20    21 ar  
    55    20    25 ar  
    56    21    22 ar  
    57    21    66 1   
    58    22    23 ar  
    59    22    67 1   
    60    23    24 ar  
    61    23    68 1   
    62    24    25 ar  
    63    24    32 1   
    64    25    69 1   
    65    26    27 1   
    66    26    70 1   
    67    26    71 1   
    68    27    72 1   
    69    27    73 1   
    70    28    29 1   
    71    28    74 1   
    72    28    75 1   
    73    28    88 1   
    74    29    30 1   
    75    29    31 1   
    76    29    76 1   
    77    30    77 1   
    78    30    78 1   
    79    30    79 1   
    80    31    80 1   
    81    31    81 1   
    82    31    82 1   
    83    33    83 1   
    84    33    86 1   
    85    35    84 1   
    86    38    86 1   
    87    39    86 2   
    88    40    43 2   
    89    41    43 2   
    90    42    85 1   
    91    43    88 1   
    92    57    87 1   
    93    58    87 1   
    94    87    88 1   
@<TRIPOS>SUBSTRUCTURE
     1 JDY         1 TEMP              0 ****  ****    0 ROOT
