@<TRIPOS>MOLECULE
JE0
   34    36     1     0     0
SMALL
No Charge or Current Charge


@<TRIPOS>ATOM
      1 C10         19.4070    51.0770    13.8750 ca         1 JE0      -0.085000
      2 C11         18.0270    51.0000    13.5890 ca         1 JE0      -0.132000
      3 C12         17.1320    50.4110    14.5070 ca         1 JE0       0.164000
      4 C13         17.6540    49.9070    15.7220 ca         1 JE0      -0.086800
      5 N           13.9590    51.3670    20.6180 nu         1 JE0      -0.880400
      6 C           15.3330    47.8430    18.1290 c3         1 JE0      -0.093100
      7 O           15.1490    50.7590    18.7790 os         1 JE0      -0.447600
      8 C1          15.5620    48.9770    17.0960 c3         1 JE0       0.025500
      9 C2          14.7950    50.2850    17.4510 c5         1 JE0       0.020300
     10 C3          13.9340    50.8870    19.3530 c2         1 JE0       0.849500
     11 C4          12.8240    51.3130    21.5520 c3         1 JE0       0.230100
     12 C5          13.2530    50.1100    17.4810 c          1 JE0       0.685500
     13 C6          17.0360    49.2510    16.8610 cc         1 JE0      -0.129400
     14 C7          18.0780    48.9660    17.7430 cd         1 JE0      -0.145100
     15 C8          18.9990    49.9800    15.9850 ca         1 JE0      -0.043200
     16 C9          19.9050    50.5590    15.0860 ca         1 JE0      -0.128000
     17 N1          12.8760    50.5640    18.7250 ne         1 JE0      -0.781100
     18 N2          19.3030    49.4150    17.2060 na         1 JE0      -0.219700
     19 O1          12.5120    49.6580    16.6230 o          1 JE0      -0.524100
     20 Cl          15.4270    50.3290    14.0700 cl         1 JE0      -0.200000
     21 H1          20.0870    51.5320    13.1580 ha         1 JE0       0.117000
     22 H2          17.6480    51.3940    12.6490 ha         1 JE0       0.129000
     23 H3          14.8980    51.4460    20.9990 hn         1 JE0       0.511000
     24 H4          14.2700    47.5820    18.1960 hc         1 JE0       0.041033
     25 H5          15.8790    46.9390    17.8330 hc         1 JE0       0.041033
     26 H6          15.6730    48.1370    19.1290 hc         1 JE0       0.041033
     27 H7          15.1520    48.5900    16.1570 hc         1 JE0       0.091700
     28 H8          15.0200    51.0730    16.7220 h1         1 JE0       0.109700
     29 H9          13.0980    51.7560    22.5180 h1         1 JE0       0.052033
     30 H10         11.9660    51.8680    21.1500 h1         1 JE0       0.052033
     31 H11         12.5140    50.2730    21.7240 h1         1 JE0       0.052033
     32 H12         18.0340    48.4930    18.7200 h4         1 JE0       0.215000
     33 H13         20.9670    50.6070    15.3140 ha         1 JE0       0.117000
     34 H14         20.2220    49.3440    17.6340 hn         1 JE0       0.352000
@<TRIPOS>BOND
     1     1     2 ar  
     2     1    16 ar  
     3     1    21 1   
     4     2     3 ar  
     5     2    22 1   
     6     3     4 ar  
     7     3    20 1   
     8     4    13 1   
     9     4    15 ar  
    10     5    10 1   
    11     5    11 1   
    12     5    23 1   
    13     6     8 1   
    14     6    24 1   
    15     6    25 1   
    16     6    26 1   
    17     7     9 1   
    18     7    10 1   
    19     8     9 1   
    20     8    13 1   
    21     8    27 1   
    22     9    12 1   
    23     9    28 1   
    24    10    17 2   
    25    11    29 1   
    26    11    30 1   
    27    11    31 1   
    28    12    17 1   
    29    12    19 2   
    30    13    14 2   
    31    14    18 1   
    32    14    32 1   
    33    15    16 ar  
    34    15    18 1   
    35    16    33 1   
    36    18    34 1   
@<TRIPOS>SUBSTRUCTURE
     1 JE0         1 TEMP              0 ****  ****    0 ROOT
