@<TRIPOS>MOLECULE
JE0
   34    36     1     0     0
SMALL
bcc


@<TRIPOS>ATOM
      1 C10         19.4430    51.0850    13.9580 ca         1 JE0      -0.103000
      2 C11         18.0910    50.9840    13.6010 ca         1 JE0      -0.150000
      3 C12         17.1840    50.4100    14.4650 ca         1 JE0       0.072400
      4 C13         17.5870    49.9180    15.7140 ca         1 JE0      -0.086800
      5 N           14.1110    51.2380    20.6290 nu         1 JE0      -0.825200
      6 C           15.2940    47.8330    18.0610 c3         1 JE0      -0.093100
      7 O           15.1100    50.7280    18.6690 os         1 JE0      -0.424400
      8 C1          15.5040    48.9470    17.0380 c3         1 JE0       0.025500
      9 C2          14.7200    50.2120    17.3930 c5         1 JE0      -0.002900
     10 C3          14.0000    50.7800    19.4010 c2         1 JE0       0.849500
     11 C4          12.9760    51.3510    21.5210 c3         1 JE0       0.230100
     12 C5          13.2210    49.9960    17.5800 c          1 JE0       0.685500
     13 C6          16.9550    49.2740    16.8340 cc         1 JE0      -0.129400
     14 C7          17.9520    49.0490    17.7420 cd         1 JE0      -0.095100
     15 C8          18.9640    50.0410    16.0290 ca         1 JE0      -0.043200
     16 C9          19.8980    50.6170    15.1710 ca         1 JE0      -0.146000
     17 N1          12.8840    50.3770    18.8430 ne         1 JE0      -0.781100
     18 N2          19.1440    49.5040    17.2660 na         1 JE0      -0.169400
     19 O1          12.4800    49.5530    16.7290 o          1 JE0      -0.524100
     20 CL          15.5230    50.3060    13.9640 cl         1 JE0      -0.108400
     21 H1          20.1350    51.5390    13.2610 ha         1 JE0       0.135000
     22 H2          17.7600    51.3580    12.6420 ha         1 JE0       0.147000
     23 H3          15.0220    51.5180    20.9580 hn         1 JE0       0.455800
     24 H4          14.2420    47.5540    18.1310 hc         1 JE0       0.041033
     25 H5          15.8450    46.9420    17.7620 hc         1 JE0       0.041033
     26 H6          15.6330    48.1120    19.0590 hc         1 JE0       0.041033
     27 H7          15.0800    48.6080    16.0900 hc         1 JE0       0.091700
     28 H8          14.8970    50.9900    16.6450 h1         1 JE0       0.109700
     29 H9          13.3260    51.7700    22.4590 h1         1 JE0       0.052033
     30 H10         12.2140    52.0100    21.1080 h1         1 JE0       0.052033
     31 H11         12.5290    50.3780    21.7180 h1         1 JE0       0.052033
     32 H12         17.9000    48.5860    18.7150 h4         1 JE0       0.165000
     33 H13         20.9410    50.6920    15.4490 ha         1 JE0       0.135000
     34 H14         20.0250    49.4320    17.7480 hn         1 JE0       0.301700
@<TRIPOS>BOND
     1     1     2 ar  
     2     1    16 ar  
     3     1    21 1   
     4     2     3 ar  
     5     2    22 1   
     6     3     4 ar  
     7     3    20 1   
     8     4    13 1   
     9     4    15 ar  
    10     5    10 1   
    11     5    11 1   
    12     5    23 1   
    13     6     8 1   
    14     6    24 1   
    15     6    25 1   
    16     6    26 1   
    17     7     9 1   
    18     7    10 1   
    19     8     9 1   
    20     8    13 1   
    21     8    27 1   
    22     9    12 1   
    23     9    28 1   
    24    10    17 2   
    25    11    29 1   
    26    11    30 1   
    27    11    31 1   
    28    12    17 1   
    29    12    19 2   
    30    13    14 2   
    31    14    18 1   
    32    14    32 1   
    33    15    16 ar  
    34    15    18 1   
    35    16    33 1   
    36    18    34 1   
@<TRIPOS>SUBSTRUCTURE
     1 JE0         1 TEMP              0 ****  ****    0 ROOT
