@<TRIPOS>MOLECULE
JE1
   47    49     1     0     0
SMALL
bcc


@<TRIPOS>ATOM
      1 C1           0.0280    -0.6910     1.2820 c          1 JE1       0.733700
      2 C2           0.6280    -1.1370     0.0570 cc         1 JE1      -0.300600
      3 C3          -0.1840    -1.6530    -0.9220 cd         1 JE1       0.251600
      4 O1           0.5940    -0.1980     2.2410 o          1 JE1      -0.597500
      5 C11         -5.9030     1.6740    -0.8440 c3         1 JE1       0.156800
      6 C12          2.7140     0.6000    -0.3830 ca         1 JE1      -0.046400
      7 C13          1.7240     1.5230    -0.7060 ca         1 JE1      -0.104000
      8 C14          2.0620     2.8480    -0.9030 ca         1 JE1      -0.211300
      9 C15          3.3900     3.2250    -0.7770 ca         1 JE1       0.390200
     10 C16          4.0200     1.0910    -0.2840 ca         1 JE1       0.311600
     11 C17          5.1680     0.1820     0.0760 c3         1 JE1       0.629600
     12 C10         -6.9450    -0.4140     0.0610 c3         1 JE1      -0.081100
     13 C4          -2.0890    -1.3770     0.2800 cc         1 JE1       0.754800
     14 C5          -4.2440    -1.8080    -0.7420 c6         1 JE1       0.213300
     15 C6          -4.8270    -0.5150    -1.2970 c6         1 JE1      -0.102900
     16 C7          -5.6220     0.2860    -0.2530 c6         1 JE1      -0.041000
     17 C8          -4.7740     0.4320     1.0220 c6         1 JE1      -0.102900
     18 C9          -4.1910    -0.8970     1.4880 c6         1 JE1       0.213300
     19 F1           6.3430     0.7860    -0.0410 f          1 JE1      -0.224300
     20 F2           5.0660    -0.2560     1.3390 f          1 JE1      -0.224300
     21 F3           5.1960    -0.9060    -0.7090 f          1 JE1      -0.224300
     22 N1          -1.3570    -0.8470     1.2950 ns         1 JE1      -0.505400
     23 N2          -1.5060    -1.7850    -0.8360 nd         1 JE1      -0.735300
     24 N3          -3.4120    -1.5040     0.4180 nh         1 JE1      -0.729600
     25 N4          -6.6440     2.5360     0.0630 n8         1 JE1      -0.887800
     26 N5           4.3430     2.3570    -0.4770 nb         1 JE1      -0.623000
     27 S1           2.3620    -1.1150    -0.1180 ss         1 JE1      -0.089500
     28 H2           0.2610    -1.9900    -1.8530 h4         1 JE1       0.171000
     29 H3          -4.9440     2.1080    -1.1670 h1         1 JE1       0.031200
     30 H4          -6.5000     1.5460    -1.7520 h1         1 JE1       0.031200
     31 H5           0.6940     1.2070    -0.8090 ha         1 JE1       0.142000
     32 H6           1.3050     3.5780    -1.1550 ha         1 JE1       0.141000
     33 H7           3.6940     4.2540    -0.9220 h4         1 JE1       0.027100
     34 H8          -6.8080    -1.4070     0.4930 hc         1 JE1       0.041033
     35 H9          -7.5310     0.1770     0.7630 hc         1 JE1       0.041033
     36 H10         -7.5370    -0.5380    -0.8480 hc         1 JE1       0.041033
     37 H11         -5.0300    -2.4900    -0.4130 h1         1 JE1       0.070200
     38 H12         -3.6540    -2.3250    -1.4910 h1         1 JE1       0.070200
     39 H13         -4.0000     0.0930    -1.6790 hc         1 JE1       0.055700
     40 H14         -5.4660    -0.7490    -2.1540 hc         1 JE1       0.055700
     41 H15         -3.9530     1.1360     0.8450 hc         1 JE1       0.055700
     42 H16         -5.3760     0.8510     1.8320 hc         1 JE1       0.055700
     43 H17         -3.6110    -0.7770     2.4010 h1         1 JE1       0.070200
     44 H18         -4.9870    -1.6000     1.7440 h1         1 JE1       0.070200
     45 H19         -6.0260     2.8950     0.7800 hn         1 JE1       0.340300
     46 H20         -6.9680     3.3500    -0.4430 hn         1 JE1       0.340300
     47 H1          -1.8110    -0.5190     2.1360 hn         1 JE1       0.326500
@<TRIPOS>BOND
     1     1     2 1   
     2     1     4 2   
     3     1    22 1   
     4     2     3 2   
     5     2    27 1   
     6     3    23 1   
     7     3    28 1   
     8     5    16 1   
     9     5    25 1   
    10     5    29 1   
    11     5    30 1   
    12     6     7 ar  
    13     6    10 ar  
    14     6    27 1   
    15     7     8 ar  
    16     7    31 1   
    17     8     9 ar  
    18     8    32 1   
    19     9    26 ar  
    20     9    33 1   
    21    10    11 1   
    22    10    26 ar  
    23    11    19 1   
    24    11    20 1   
    25    11    21 1   
    26    12    16 1   
    27    12    34 1   
    28    12    35 1   
    29    12    36 1   
    30    13    22 1   
    31    13    23 2   
    32    13    24 1   
    33    14    15 1   
    34    14    24 1   
    35    14    37 1   
    36    14    38 1   
    37    15    16 1   
    38    15    39 1   
    39    15    40 1   
    40    16    17 1   
    41    17    18 1   
    42    17    41 1   
    43    17    42 1   
    44    18    24 1   
    45    18    43 1   
    46    18    44 1   
    47    22    47 1   
    48    25    45 1   
    49    25    46 1   
@<TRIPOS>SUBSTRUCTURE
     1 JE1         1 TEMP              0 ****  ****    0 ROOT
