@<TRIPOS>MOLECULE
JE1
   47    49     1     0     0
SMALL
No Charge or Current Charge


@<TRIPOS>ATOM
      1 C1           0.0110    -1.2830     2.0900 c          1 JE1       0.591200
      2 C2           0.8040    -1.1710     0.8760 cc         1 JE1      -0.300600
      3 C3           0.2700    -1.1820    -0.3980 cd         1 JE1       0.201600
      4 O1           0.4550    -1.3300     3.2250 o          1 JE1      -0.522000
      5 C11         -5.7700     1.5990    -1.4420 c3         1 JE1       0.156800
      6 C12          2.5970     0.5780     0.3630 ca         1 JE1      -0.108000
      7 C13          1.8560     1.5450     1.0730 ca         1 JE1      -0.086000
      8 C14          1.9040     2.8800     0.6470 ca         1 JE1      -0.128000
      9 C15          2.6920     3.2120    -0.4630 ca         1 JE1       0.324900
     10 C16          3.3890     0.9970    -0.7440 ca         1 JE1       0.246300
     11 C17          4.2500    -0.0040    -1.5540 c3         1 JE1       0.265700
     12 C10         -6.7480    -0.4090    -0.2400 c3         1 JE1      -0.081100
     13 C4          -1.8310    -1.2820     0.5920 cc         1 JE1       0.754800
     14 C5          -3.9260    -1.8050    -0.6680 c6         1 JE1       0.213300
     15 C6          -4.4950    -0.6020    -1.4630 c6         1 JE1      -0.102900
     16 C7          -5.4100     0.3240    -0.5990 c6         1 JE1      -0.041000
     17 C8          -4.6180     0.7170     0.6900 c6         1 JE1      -0.102900
     18 C9          -4.0530    -0.5090     1.4520 c6         1 JE1       0.213300
     19 F1           4.9280     0.5770    -2.5740 f          1 JE1      -0.103000
     20 F2           5.1810    -0.6120    -0.7800 f          1 JE1      -0.103000
     21 F3           3.4980    -0.9830    -2.1100 f          1 JE1      -0.103000
     22 N1          -1.3010    -1.3270     1.8300 ns         1 JE1      -0.438400
     23 N2          -1.1250    -1.2390    -0.5310 nd         1 JE1      -0.735300
     24 N3          -3.2030    -1.3350     0.5460 nh         1 JE1      -0.729600
     25 N4          -6.6060     2.6040    -0.7500 n8         1 JE1      -0.998200
     26 N5           3.4220     2.3000    -1.1440 nb         1 JE1      -0.623000
     27 S1           2.5670    -1.1440     0.8960 ss         1 JE1       0.037400
     28 H2           0.8690    -1.1430    -1.3080 h4         1 JE1       0.221000
     29 H3          -4.8370     2.0920    -1.7510 h1         1 JE1       0.031200
     30 H4          -6.2960     1.2850    -2.3550 h1         1 JE1       0.031200
     31 H5           1.2640     1.2750     1.9440 ha         1 JE1       0.124000
     32 H6           1.3440     3.6510     1.1680 ha         1 JE1       0.123000
     33 H7           2.7480     4.2410    -0.8160 h4         1 JE1       0.027100
     34 H8          -6.5820    -1.3450     0.3030 hc         1 JE1       0.041033
     35 H9          -7.3920     0.2130     0.3940 hc         1 JE1       0.041033
     36 H10         -7.3190    -0.6580    -1.1420 hc         1 JE1       0.041033
     37 H11         -4.7460    -2.4780    -0.3770 h1         1 JE1       0.070200
     38 H12         -3.2700    -2.3960    -1.3240 h1         1 JE1       0.070200
     39 H13         -3.6520    -0.0210    -1.8600 hc         1 JE1       0.055700
     40 H14         -5.0470    -0.9720    -2.3380 hc         1 JE1       0.055700
     41 H15         -3.7810     1.3770     0.4210 hc         1 JE1       0.055700
     42 H16         -5.2570     1.2960     1.3710 hc         1 JE1       0.055700
     43 H17         -3.4910    -0.1430     2.3240 h1         1 JE1       0.070200
     44 H18         -4.8810    -1.1140     1.8480 h1         1 JE1       0.070200
     45 H19         -6.0870     2.9640     0.0580 hn         1 JE1       0.395500
     46 H20         -6.7120     3.4260    -1.3560 hn         1 JE1       0.395500
     47 H1          -1.9190    -1.4300     2.6140 hn         1 JE1       0.326500
@<TRIPOS>BOND
     1     1     2 1   
     2     1     4 2   
     3     1    22 1   
     4     2     3 2   
     5     2    27 1   
     6     3    23 1   
     7     3    28 1   
     8     5    16 1   
     9     5    25 1   
    10     5    29 1   
    11     5    30 1   
    12     6     7 ar  
    13     6    10 ar  
    14     6    27 1   
    15     7     8 ar  
    16     7    31 1   
    17     8     9 ar  
    18     8    32 1   
    19     9    26 ar  
    20     9    33 1   
    21    10    11 1   
    22    10    26 ar  
    23    11    19 1   
    24    11    20 1   
    25    11    21 1   
    26    12    16 1   
    27    12    34 1   
    28    12    35 1   
    29    12    36 1   
    30    13    22 1   
    31    13    23 2   
    32    13    24 1   
    33    14    15 1   
    34    14    24 1   
    35    14    37 1   
    36    14    38 1   
    37    15    16 1   
    38    15    39 1   
    39    15    40 1   
    40    16    17 1   
    41    17    18 1   
    42    17    41 1   
    43    17    42 1   
    44    18    24 1   
    45    18    43 1   
    46    18    44 1   
    47    22    47 1   
    48    25    45 1   
    49    25    46 1   
@<TRIPOS>SUBSTRUCTURE
     1 JE1         1 TEMP              0 ****  ****    0 ROOT
