@<TRIPOS>MOLECULE
JE2
   78    81     1     0     0
SMALL
No Charge or Current Charge


@<TRIPOS>ATOM
      1 C3           8.1340     0.0300     0.4590 ca         1 JE2      -0.128000
      2 C4           7.2760     1.0600     0.0580 ca         1 JE2      -0.083000
      3 C5           5.9010     0.8190    -0.0510 ca         1 JE2      -0.126000
      4 C6           5.3530    -0.4590     0.2300 ca         1 JE2      -0.107600
      5 C7           6.2360    -1.5140     0.6210 ca         1 JE2      -0.117300
      6 C1           7.6250    -1.2440     0.7420 ca         1 JE2       0.134100
      7 C8           5.7030    -2.9330     0.8730 c3         1 JE2      -0.052800
      8 C9           3.8450    -0.6460     0.1270 c          1 JE2       0.615700
      9 O2           8.5070    -2.2080     1.1410 oh         1 JE2      -0.540100
     10 O10          3.2040    -1.4100     0.8370 o          1 JE2      -0.613100
     11 C22         -0.3010    -1.2020    -1.6090 c          1 JE2       0.578100
     12 N11          3.2070     0.1670    -0.7830 ns         1 JE2      -0.490900
     13 O23         -1.0470    -1.0900    -2.5770 o          1 JE2      -0.612100
     14 C20          1.2400    -1.0200    -1.7840 c3         1 JE2       0.085300
     15 C14          1.7370     2.7550    -0.6930 ca         1 JE2      -0.076300
     16 C13          1.3280     1.5850    -1.5810 c3         1 JE2      -0.050100
     17 C17          2.5020     4.8940     0.9760 ca         1 JE2      -0.110000
     18 C12          1.7550     0.2190    -0.9850 c3         1 JE2       0.093700
     19 O21          1.6130    -0.9230    -3.1860 oh         1 JE2      -0.650000
     20 C15          2.8340     3.5690    -1.0390 ca         1 JE2      -0.105500
     21 C19          1.0240     3.0220     0.4920 ca         1 JE2      -0.105500
     22 C16          3.2160     4.6350    -0.2060 ca         1 JE2      -0.111000
     23 C18          1.4050     4.0880     1.3240 ca         1 JE2      -0.111000
     24 C31         -2.9300     0.0370    -0.4310 c          1 JE2       0.609100
     25 N24         -0.8240    -1.4250    -0.3170 n          1 JE2      -0.386800
     26 O32         -2.3570     1.1180    -0.4780 o          1 JE2      -0.599100
     27 C30         -2.3050    -1.3500    -0.0710 c5         1 JE2       0.027700
     28 C27         -2.4940    -1.6360     1.4650 c5         1 JE2       0.103000
     29 C25         -0.0460    -2.1580     0.7130 c5         1 JE2       0.239000
     30 C28         -3.9070    -2.1610     1.8240 c3         1 JE2      -0.084600
     31 C29         -2.1390    -0.4550     2.4130 c3         1 JE2      -0.084600
     32 S26         -1.3050    -3.0110     1.7620 ss         1 JE2      -0.424000
     33 C34         -5.1640     0.9820    -1.0780 c3         1 JE2       0.147300
     34 C35         -6.5950     0.6590    -0.6640 ca         1 JE2      -0.117300
     35 C36         -7.0760     0.9390     0.6400 ca         1 JE2      -0.054300
     36 C37         -8.4060     0.6110     0.9730 ca         1 JE2      -0.116000
     37 C38         -9.2520     0.0080     0.0290 ca         1 JE2      -0.097000
     38 C39         -8.7750    -0.2730    -1.2600 ca         1 JE2      -0.116000
     39 C40         -7.4520     0.0500    -1.6030 ca         1 JE2      -0.095000
     40 C41         -6.1870     1.5930     1.6950 c3         1 JE2      -0.050800
     41 HC3          9.2000     0.2210     0.5540 ha         1 JE2       0.130000
     42 HC4          7.6760     2.0500    -0.1540 ha         1 JE2       0.119000
     43 HC5          5.2590     1.6530    -0.3280 ha         1 JE2       0.127000
     44 HC81         5.2490    -3.0110     1.8680 hc         1 JE2       0.048033
     45 HC82         4.9440    -3.2110     0.1320 hc         1 JE2       0.048033
     46 HC83         6.4760    -3.7050     0.8010 hc         1 JE2       0.048033
     47 HO2          8.0010    -3.0140     1.3710 ho         1 JE2       0.470000
     48 H11          3.7960     0.7580    -1.3540 hn         1 JE2       0.328500
     49 H20          1.7020    -1.9160    -1.3520 h1         1 JE2       0.084700
     50 H131         1.7590     1.7010    -2.5830 hc         1 JE2       0.069200
     51 H132         0.2390     1.5970    -1.7180 hc         1 JE2       0.069200
     52 H17          2.7980     5.7190     1.6210 ha         1 JE2       0.111000
     53 H12          1.3050     0.1760     0.0150 h1         1 JE2       0.087700
     54 H21          0.7650    -0.9100    -3.6900 ho         1 JE2       0.473000
     55 H15          3.3940     3.3760    -1.9520 ha         1 JE2       0.115500
     56 H19          0.1730     2.4020     0.7690 ha         1 JE2       0.115500
     57 H16          4.0650     5.2590    -0.4760 ha         1 JE2       0.111000
     58 H18          0.8510     4.2890     2.2390 ha         1 JE2       0.111000
     59 H30         -2.8070    -2.1210    -0.6720 h1         1 JE2       0.080700
     60 H251         0.6060    -2.8930     0.2240 h2         1 JE2       0.090700
     61 H252         0.5120    -1.4200     1.3030 h2         1 JE2       0.090700
     62 H281        -3.9500    -2.4950     2.8680 hc         1 JE2       0.052200
     63 H282        -4.6730    -1.3880     1.6980 hc         1 JE2       0.052200
     64 H283        -4.1860    -3.0140     1.1950 hc         1 JE2       0.052200
     65 H291        -1.1570    -0.0250     2.1850 hc         1 JE2       0.052200
     66 H292        -2.8740     0.3550     2.3400 hc         1 JE2       0.052200
     67 H293        -2.1200    -0.7820     3.4590 hc         1 JE2       0.052200
     68 H33         -4.6550    -1.0490    -0.6780 hn         1 JE2       0.319500
     69 H341        -4.8280     1.9090    -0.5970 h1         1 JE2       0.060700
     70 H342        -5.1150     1.1380    -2.1640 h1         1 JE2       0.060700
     71 H37         -8.7880     0.8240     1.9690 ha         1 JE2       0.113000
     72 H38        -10.2770    -0.2410     0.2960 ha         1 JE2       0.115000
     73 H39         -9.4290    -0.7420    -1.9920 ha         1 JE2       0.117000
     74 H40         -7.0920    -0.1750    -2.6050 ha         1 JE2       0.115000
     75 H411        -5.9550     2.6300     1.4240 hc         1 JE2       0.045033
     76 H412        -6.6690     1.6120     2.6790 hc         1 JE2       0.045033
     77 H413        -5.2400     1.0540     1.8090 hc         1 JE2       0.045033
     78 N33         -4.2670    -0.1150    -0.7250 ns         1 JE2      -0.493900
@<TRIPOS>BOND
     1     1     2 ar  
     2     1     6 ar  
     3     1    41 1   
     4     2     3 ar  
     5     2    42 1   
     6     3     4 ar  
     7     3    43 1   
     8     4     5 ar  
     9     4     8 1   
    10     5     6 ar  
    11     5     7 1   
    12     6     9 1   
    13     7    44 1   
    14     7    45 1   
    15     7    46 1   
    16     8    10 2   
    17     8    12 1   
    18     9    47 1   
    19    11    13 2   
    20    11    14 1   
    21    11    25 1   
    22    12    18 1   
    23    12    48 1   
    24    14    18 1   
    25    14    19 1   
    26    14    49 1   
    27    15    16 1   
    28    15    20 ar  
    29    15    21 ar  
    30    16    18 1   
    31    16    50 1   
    32    16    51 1   
    33    17    22 ar  
    34    17    23 ar  
    35    17    52 1   
    36    18    53 1   
    37    19    54 1   
    38    20    22 ar  
    39    20    55 1   
    40    21    23 ar  
    41    21    56 1   
    42    22    57 1   
    43    23    58 1   
    44    24    26 2   
    45    24    27 1   
    46    24    78 1   
    47    25    27 1   
    48    25    29 1   
    49    27    28 1   
    50    27    59 1   
    51    28    30 1   
    52    28    31 1   
    53    28    32 1   
    54    29    32 1   
    55    29    60 1   
    56    29    61 1   
    57    30    62 1   
    58    30    63 1   
    59    30    64 1   
    60    31    65 1   
    61    31    66 1   
    62    31    67 1   
    63    33    34 1   
    64    33    69 1   
    65    33    70 1   
    66    33    78 1   
    67    34    35 ar  
    68    34    39 ar  
    69    35    36 ar  
    70    35    40 1   
    71    36    37 ar  
    72    36    71 1   
    73    37    38 ar  
    74    37    72 1   
    75    38    39 ar  
    76    38    73 1   
    77    39    74 1   
    78    40    75 1   
    79    40    76 1   
    80    40    77 1   
    81    68    78 1   
@<TRIPOS>SUBSTRUCTURE
     1 JE2         1 TEMP              0 ****  ****    0 ROOT
