@<TRIPOS>MOLECULE
JE2
   78    81     1     0     0
SMALL
abcg2


@<TRIPOS>ATOM
      1 C3           8.0310     0.2670    -0.0760 ca         1 JE2      -0.128000
      2 C4           7.1390     1.2880    -0.3500 ca         1 JE2      -0.083000
      3 C5           5.7760     1.0610    -0.2550 ca         1 JE2      -0.126000
      4 C6           5.3070    -0.1960     0.1190 ca         1 JE2      -0.107600
      5 C7           6.1860    -1.2500     0.3900 ca         1 JE2      -0.117300
      6 C1           7.5600    -0.9900     0.2930 ca         1 JE2       0.134100
      7 C8           5.7230    -2.6360     0.7490 c3         1 JE2      -0.052800
      8 C9           3.8310    -0.3630     0.3060 c          1 JE2       0.615700
      9 O2           8.4930    -1.9320     0.5430 oh         1 JE2      -0.540100
     10 O10          3.3550    -0.7940     1.3460 o          1 JE2      -0.613100
     11 C22         -0.4270    -1.2780    -1.1630 c          1 JE2       0.578100
     12 N11          3.0850     0.0340    -0.7410 ns         1 JE2      -0.490900
     13 O23         -1.1840    -1.0430    -2.0960 o          1 JE2      -0.612100
     14 C20          1.0790    -1.2140    -1.3870 c3         1 JE2       0.085300
     15 C14          1.6660     2.5650    -0.6790 ca         1 JE2      -0.076300
     16 C13          1.1210     1.3460    -1.3670 c3         1 JE2      -0.050100
     17 C17          2.7260     4.7800     0.6650 ca         1 JE2      -0.110000
     18 C12          1.6440     0.0600    -0.7190 c3         1 JE2       0.093700
     19 O21          1.3610    -1.2530    -2.7510 oh         1 JE2      -0.650000
     20 C15          2.7390     3.2740    -1.2120 ca         1 JE2      -0.105500
     21 C19          1.1240     2.9880     0.5340 ca         1 JE2      -0.105500
     22 C16          3.2670     4.3730    -0.5470 ca         1 JE2      -0.111000
     23 C18          1.6490     4.0850     1.2020 ca         1 JE2      -0.111000
     24 C31         -2.8530    -0.0870    -0.0090 c          1 JE2       0.609100
     25 N24         -0.8810    -1.5280     0.0770 n          1 JE2      -0.386800
     26 O32         -2.1880     0.9190     0.1700 o          1 JE2      -0.599100
     27 C30         -2.3130    -1.4840     0.3060 c5         1 JE2       0.027700
     28 C27         -2.5800    -1.8920     1.7770 c5         1 JE2       0.103000
     29 C25         -0.0880    -2.0420     1.1780 c5         1 JE2       0.239000
     30 C28         -3.9180    -2.6050     1.9190 c3         1 JE2      -0.084600
     31 C29         -2.4880    -0.7420     2.7750 c3         1 JE2      -0.084600
     32 S26         -1.2310    -3.0940     2.0940 ss         1 JE2      -0.424000
     33 C34         -4.8250     1.1450    -0.7880 c3         1 JE2       0.147300
     34 C35         -6.3120     0.9200    -0.7720 ca         1 JE2      -0.117300
     35 C36         -7.0260     0.8750     0.4350 ca         1 JE2      -0.054300
     36 C37         -8.3980     0.6440     0.3870 ca         1 JE2      -0.116000
     37 C38         -9.0610     0.4610    -0.8200 ca         1 JE2      -0.097000
     38 C39         -8.3520     0.5080    -2.0100 ca         1 JE2      -0.116000
     39 C40         -6.9830     0.7380    -1.9760 ca         1 JE2      -0.095000
     40 C41         -6.3450     1.0840     1.7560 c3         1 JE2      -0.050800
     41 HC3          9.0990     0.4340    -0.1420 ha         1 JE2       0.130000
     42 HC4          7.5100     2.2650    -0.6300 ha         1 JE2       0.119000
     43 HC5          5.0770     1.8670    -0.4410 ha         1 JE2       0.127000
     44 HC81         5.8400    -2.8360     1.8160 hc         1 JE2       0.048033
     45 HC82         4.6780    -2.7990     0.5070 hc         1 JE2       0.048033
     46 HC83         6.2850    -3.4000     0.2070 hc         1 JE2       0.048033
     47 HO2          8.0970    -2.7400     0.8880 ho         1 JE2       0.470000
     48 H11          3.5520     0.2810    -1.5990 hn         1 JE2       0.328500
     49 H20          1.5680    -2.0750    -0.9190 h1         1 JE2       0.084700
     50 H131         1.3870     1.3640    -2.4270 hc         1 JE2       0.069200
     51 H132         0.0310     1.3490    -1.3080 hc         1 JE2       0.069200
     52 H17          3.1360     5.6360     1.1860 ha         1 JE2       0.111000
     53 H12          1.3440     0.0620     0.3300 h1         1 JE2       0.087700
     54 H21          0.5660    -0.9610    -3.2190 ho         1 JE2       0.473000
     55 H15          3.1640     2.9690    -2.1610 ha         1 JE2       0.115500
     56 H19          0.2770     2.4540     0.9520 ha         1 JE2       0.115500
     57 H16          4.1020     4.9120    -0.9780 ha         1 JE2       0.111000
     58 H18          1.2150     4.4000     2.1430 ha         1 JE2       0.111000
     59 H30         -2.7980    -2.2220    -0.3420 h1         1 JE2       0.080700
     60 H251         0.7490    -2.6450     0.8340 h2         1 JE2       0.090700
     61 H252         0.3000    -1.2440     1.8120 h2         1 JE2       0.090700
     62 H281        -4.0430    -2.9870     2.9320 hc         1 JE2       0.052200
     63 H282        -4.7400    -1.9110     1.7340 hc         1 JE2       0.052200
     64 H283        -4.0090    -3.4370     1.2210 hc         1 JE2       0.052200
     65 H291        -1.5500    -0.1920     2.7130 hc         1 JE2       0.052200
     66 H292        -3.2990    -0.0280     2.6230 hc         1 JE2       0.052200
     67 H293        -2.5840    -1.1360     3.7860 hc         1 JE2       0.052200
     68 H33         -4.5570    -0.9480    -0.6950 hn         1 JE2       0.319500
     69 H341        -4.5400     1.9270    -0.0830 h1         1 JE2       0.060700
     70 H342        -4.5140     1.4840    -1.7800 h1         1 JE2       0.060700
     71 H37         -8.9600     0.6110     1.3120 ha         1 JE2       0.113000
     72 H38        -10.1290     0.2870    -0.8270 ha         1 JE2       0.115000
     73 H39         -8.8570     0.3680    -2.9570 ha         1 JE2       0.117000
     74 H40         -6.4230     0.7810    -2.9030 ha         1 JE2       0.115000
     75 H411        -5.8410     2.0510     1.8010 hc         1 JE2       0.045033
     76 H412        -7.0600     1.0440     2.5760 hc         1 JE2       0.045033
     77 H413        -5.5850     0.3240     1.9450 hc         1 JE2       0.045033
     78 N33         -4.1250    -0.0760    -0.4310 ns         1 JE2      -0.493900
@<TRIPOS>BOND
     1     1     2 ar  
     2     1     6 ar  
     3     1    41 1   
     4     2     3 ar  
     5     2    42 1   
     6     3     4 ar  
     7     3    43 1   
     8     4     5 ar  
     9     4     8 1   
    10     5     6 ar  
    11     5     7 1   
    12     6     9 1   
    13     7    44 1   
    14     7    45 1   
    15     7    46 1   
    16     8    10 2   
    17     8    12 1   
    18     9    47 1   
    19    11    13 2   
    20    11    14 1   
    21    11    25 1   
    22    12    18 1   
    23    12    48 1   
    24    14    18 1   
    25    14    19 1   
    26    14    49 1   
    27    15    16 1   
    28    15    20 ar  
    29    15    21 ar  
    30    16    18 1   
    31    16    50 1   
    32    16    51 1   
    33    17    22 ar  
    34    17    23 ar  
    35    17    52 1   
    36    18    53 1   
    37    19    54 1   
    38    20    22 ar  
    39    20    55 1   
    40    21    23 ar  
    41    21    56 1   
    42    22    57 1   
    43    23    58 1   
    44    24    26 2   
    45    24    27 1   
    46    24    78 1   
    47    25    27 1   
    48    25    29 1   
    49    27    28 1   
    50    27    59 1   
    51    28    30 1   
    52    28    31 1   
    53    28    32 1   
    54    29    32 1   
    55    29    60 1   
    56    29    61 1   
    57    30    62 1   
    58    30    63 1   
    59    30    64 1   
    60    31    65 1   
    61    31    66 1   
    62    31    67 1   
    63    33    34 1   
    64    33    69 1   
    65    33    70 1   
    66    33    78 1   
    67    34    35 ar  
    68    34    39 ar  
    69    35    36 ar  
    70    35    40 1   
    71    36    37 ar  
    72    36    71 1   
    73    37    38 ar  
    74    37    72 1   
    75    38    39 ar  
    76    38    73 1   
    77    39    74 1   
    78    40    75 1   
    79    40    76 1   
    80    40    77 1   
    81    68    78 1   
@<TRIPOS>SUBSTRUCTURE
     1 JE2         1 TEMP              0 ****  ****    0 ROOT
