@<TRIPOS>MOLECULE
JE3
   34    36     1     0     0
SMALL
No Charge or Current Charge


@<TRIPOS>ATOM
      1 N           13.8920    51.0590    20.4470 nu         1 JE3      -0.879400
      2 O1          12.4430    49.3450    16.4550 o          1 JE3      -0.522100
      3 C10         19.2540    50.8150    13.7200 ca         1 JE3      -0.067000
      4 C11         17.8620    50.7530    13.4810 ca         1 JE3      -0.183000
      5 C12         17.0070    50.1430    14.4190 ca         1 JE3       0.215000
      6 C13         17.5690    49.6050    15.5930 ca         1 JE3      -0.137800
      7 C           15.2480    47.5200    17.9590 c3         1 JE3      -0.093100
      8 O           15.0800    50.4490    18.6090 os         1 JE3      -0.448600
      9 C1          15.4920    48.6580    16.9360 c3         1 JE3       0.024500
     10 C2          14.7270    49.9680    17.2830 c5         1 JE3       0.022300
     11 C3          13.8660    50.5770    19.1830 c2         1 JE3       0.849500
     12 C4          12.7570    51.0060    21.3820 c3         1 JE3       0.230100
     13 C5          13.1840    49.7960    17.3130 c          1 JE3       0.684500
     14 C6          16.9680    48.9250    16.7170 cc         1 JE3      -0.121400
     15 C7          18.0250    48.6060    17.5690 cd         1 JE3      -0.149100
     16 C8          18.9170    49.6620    15.8160 ca         1 JE3      -0.027200
     17 C9          19.7930    50.2620    14.9000 ca         1 JE3      -0.145000
     18 N1          12.8080    50.2510    18.5570 ne         1 JE3      -0.781100
     19 N2          19.2450    49.0600    17.0150 na         1 JE3      -0.219700
     20 H1          14.8300    51.1400    20.8270 hn         1 JE3       0.511000
     21 H2          19.9110    51.2870    12.9920 ha         1 JE3       0.116000
     22 H3          17.4460    51.1750    12.5690 ha         1 JE3       0.132000
     23 H4          14.1830    47.2670    18.0190 hc         1 JE3       0.041700
     24 H5          15.7880    46.6130    17.6600 hc         1 JE3       0.041700
     25 H6          15.5870    47.8050    18.9620 hc         1 JE3       0.041700
     26 H7          15.0930    48.2890    15.9820 hc         1 JE3       0.090700
     27 H8          14.9520    50.7510    16.5480 h1         1 JE3       0.108700
     28 H9          13.0310    51.4510    22.3480 h1         1 JE3       0.052033
     29 H10         11.8980    51.5600    20.9790 h1         1 JE3       0.052033
     30 H11         12.4480    49.9660    21.5560 h1         1 JE3       0.052033
     31 H12         17.9970    48.1010    18.5300 h4         1 JE3       0.215000
     32 H13         20.8630    50.3000    15.0920 ha         1 JE3       0.118000
     33 H14         20.1730    48.9690    17.4180 hn         1 JE3       0.352000
     34 F           15.6790    50.0780    14.1760 f          1 JE3      -0.177000
@<TRIPOS>BOND
     1     1    11 1   
     2     1    12 1   
     3     1    20 1   
     4     2    13 2   
     5     3     4 ar  
     6     3    17 ar  
     7     3    21 1   
     8     4     5 ar  
     9     4    22 1   
    10     5     6 ar  
    11     5    34 1   
    12     6    14 1   
    13     6    16 ar  
    14     7     9 1   
    15     7    23 1   
    16     7    24 1   
    17     7    25 1   
    18     8    10 1   
    19     8    11 1   
    20     9    10 1   
    21     9    14 1   
    22     9    26 1   
    23    10    13 1   
    24    10    27 1   
    25    11    18 2   
    26    12    28 1   
    27    12    29 1   
    28    12    30 1   
    29    13    18 1   
    30    14    15 2   
    31    15    19 1   
    32    15    31 1   
    33    16    17 ar  
    34    16    19 1   
    35    17    32 1   
    36    19    33 1   
@<TRIPOS>SUBSTRUCTURE
     1 JE3         1 TEMP              0 ****  ****    0 ROOT
