@<TRIPOS>MOLECULE
JE3
   34    36     1     0     0
SMALL
abcg2


@<TRIPOS>ATOM
      1 N           14.0520    50.9220    20.4550 nu         1 JE3      -0.879400
      2 O1          12.4140    49.2670    16.5460 o          1 JE3      -0.522100
      3 C10         19.2870    50.8260    13.8070 ca         1 JE3      -0.067000
      4 C11         17.9240    50.7210    13.4800 ca         1 JE3      -0.183000
      5 C12         17.0640    50.1180    14.3630 ca         1 JE3       0.215000
      6 C13         17.5030    49.6080    15.5830 ca         1 JE3      -0.137800
      7 C           15.1940    47.5150    17.8940 c3         1 JE3      -0.093100
      8 O           15.0480    50.4200    18.4920 os         1 JE3      -0.448600
      9 C1          15.4310    48.6270    16.8760 c3         1 JE3       0.024500
     10 C2          14.6590    49.9030    17.2170 c5         1 JE3       0.022300
     11 C3          13.9380    50.4740    19.2250 c2         1 JE3       0.849500
     12 C4          12.9200    51.0290    21.3510 c3         1 JE3       0.230100
     13 C5          13.1570    49.7010    17.4000 c          1 JE3       0.684500
     14 C6          16.8870    48.9380    16.6930 cc         1 JE3      -0.121400
     15 C7          17.8970    48.6920    17.5790 cd         1 JE3      -0.149100
     16 C8          18.8810    49.7300    15.8700 ca         1 JE3      -0.027200
     17 C9          19.7850    50.3350    14.9950 ca         1 JE3      -0.145000
     18 N1          12.8210    50.0800    18.6640 ne         1 JE3      -0.781100
     19 N2          19.0820    49.1620    17.0900 na         1 JE3      -0.219700
     20 H1          14.9640    51.1960    20.7860 hn         1 JE3       0.511000
     21 H2          19.9560    51.3040    13.1040 ha         1 JE3       0.116000
     22 H3          17.5540    51.1110    12.5410 ha         1 JE3       0.132000
     23 H4          14.1380    47.2510    17.9570 hc         1 JE3       0.041700
     24 H5          15.7340    46.6170    17.5980 hc         1 JE3       0.041700
     25 H6          15.5320    47.7880    18.8940 hc         1 JE3       0.041700
     26 H7          15.0190    48.2960    15.9180 hc         1 JE3       0.090700
     27 H8          14.8470    50.6750    16.4660 h1         1 JE3       0.108700
     28 H9          13.2750    51.4210    22.2990 h1         1 JE3       0.052033
     29 H10         12.1650    51.7070    20.9540 h1         1 JE3       0.052033
     30 H11         12.4600    50.0580    21.5260 h1         1 JE3       0.052033
     31 H12         17.8630    48.2080    18.5420 h4         1 JE3       0.215000
     32 H13         20.8360    50.4160    15.2410 ha         1 JE3       0.118000
     33 H14         19.9700    49.0830    17.5580 hn         1 JE3       0.352000
     34 F           15.7580    50.0140    14.0490 f          1 JE3      -0.177000
@<TRIPOS>BOND
     1     1    11 1   
     2     1    12 1   
     3     1    20 1   
     4     2    13 2   
     5     3     4 ar  
     6     3    17 ar  
     7     3    21 1   
     8     4     5 ar  
     9     4    22 1   
    10     5     6 ar  
    11     5    34 1   
    12     6    14 1   
    13     6    16 ar  
    14     7     9 1   
    15     7    23 1   
    16     7    24 1   
    17     7    25 1   
    18     8    10 1   
    19     8    11 1   
    20     9    10 1   
    21     9    14 1   
    22     9    26 1   
    23    10    13 1   
    24    10    27 1   
    25    11    18 2   
    26    12    28 1   
    27    12    29 1   
    28    12    30 1   
    29    13    18 1   
    30    14    15 2   
    31    15    19 1   
    32    15    31 1   
    33    16    17 ar  
    34    16    19 1   
    35    17    32 1   
    36    19    33 1   
@<TRIPOS>SUBSTRUCTURE
     1 JE3         1 TEMP              0 ****  ****    0 ROOT
