@<TRIPOS>MOLECULE
JE4
   47    50     1     0     0
SMALL
No Charge or Current Charge


@<TRIPOS>ATOM
      1 C1          22.0060    40.8860     4.2900 cc         1 JE4      -0.340600
      2 C2          23.2660    40.5090     4.5540 cd         1 JE4       0.186400
      3 C3          23.9600    41.2660     2.5330 cc         1 JE4       0.745800
      4 C11         28.3240    42.2910     0.2360 c3         1 JE4      -0.082100
      5 C12         21.2380    40.5580     5.4370 cc         1 JE4       0.384500
      6 C13         19.7680    40.5760     5.5530 ca         1 JE4      -0.102500
      7 C14         19.1080    40.8820     6.7760 ca         1 JE4       0.151000
      8 C15         17.6980    40.8100     6.8600 ca         1 JE4       0.117000
      9 C16         16.9400    40.4150     5.7490 ca         1 JE4      -0.089000
     10 C17         17.5810    40.0830     4.5480 ca         1 JE4      -0.103000
     11 C18         18.9800    40.1540     4.4560 ca         1 JE4      -0.069000
     12 C10         25.4490    42.9070     1.4160 c6         1 JE4       0.219800
     13 C4          21.6260    41.5680     3.0650 c          1 JE4       0.620600
     14 C6          25.9430    40.4590     1.2640 c6         1 JE4       0.219800
     15 C7          27.3060    40.6780     1.9690 c6         1 JE4      -0.118400
     16 C8          27.8730    42.1000     1.7160 c6         1 JE4       0.172200
     17 C9          26.8010    43.1410     2.1330 c6         1 JE4      -0.118400
     18 N1          24.3100    40.6880     3.6770 nd         1 JE4      -0.712100
     19 N2          22.6800    41.6820     2.1620 n          1 JE4      -0.360300
     20 N3          24.9630    41.5180     1.6280 nh         1 JE4      -0.751600
     21 N5          23.2640    39.9720     5.8290 na         1 JE4      -0.022200
     22 N6          21.9820    39.9870     6.3800 nd         1 JE4      -0.486800
     23 Cl1         16.8480    41.2200     8.3530 cl         1 JE4      -0.183000
     24 Cl2         20.0040    41.4650     8.1920 cl         1 JE4      -0.171000
     25 H1          29.0990    41.5650    -0.0410 hc         1 JE4       0.040367
     26 H2          27.4970    42.1640    -0.4720 hc         1 JE4       0.040367
     27 H3          28.7380    43.2930     0.0720 hc         1 JE4       0.040367
     28 H4          15.8560    40.3590     5.8220 ha         1 JE4       0.131000
     29 H5          16.9960    39.7560     3.6910 ha         1 JE4       0.123000
     30 H6          19.4530    39.8380     3.5300 ha         1 JE4       0.127000
     31 H7          24.7190    43.6350     1.8010 h1         1 JE4       0.062700
     32 H8          25.5560    43.1090     0.3400 h1         1 JE4       0.062700
     33 H9          21.3380    42.0320     0.5270 h1         1 JE4       0.056700
     34 H10         22.5320    43.3260     0.8180 h1         1 JE4       0.056700
     35 H11         23.0200    41.7870     0.0480 h1         1 JE4       0.056700
     36 H12         25.5560    39.4650     1.5330 h1         1 JE4       0.062700
     37 H13         26.0890    40.4480     0.1740 h1         1 JE4       0.062700
     38 H14         28.0180    39.9150     1.6270 hc         1 JE4       0.058700
     39 H15         27.1710    40.5140     3.0460 hc         1 JE4       0.058700
     40 H16         27.1530    44.1600     1.9210 hc         1 JE4       0.058700
     41 H17         26.6320    43.0920     3.2180 hc         1 JE4       0.058700
     42 H18         28.8670    43.0260     3.2420 hn         1 JE4       0.396000
     43 H19         29.1860    41.4520     3.1400 hn         1 JE4       0.396000
     44 H21         24.0700    39.5980     6.3210 hn         1 JE4       0.386000
     45 O1          20.5140    42.0240     2.8440 o          1 JE4      -0.530000
     46 C5          22.3770    42.2410     0.8130 c3         1 JE4       0.080300
     47 N4          29.0640    42.2870     2.5590 n8         1 JE4      -0.993200
@<TRIPOS>BOND
     1     1     2 2   
     2     1     5 1   
     3     1    13 1   
     4     2    18 1   
     5     2    21 1   
     6     3    18 2   
     7     3    19 1   
     8     3    20 1   
     9     4    16 1   
    10     4    25 1   
    11     4    26 1   
    12     4    27 1   
    13     5     6 1   
    14     5    22 2   
    15     6     7 ar  
    16     6    11 ar  
    17     7     8 ar  
    18     7    24 1   
    19     8     9 ar  
    20     8    23 1   
    21     9    10 ar  
    22     9    28 1   
    23    10    11 ar  
    24    10    29 1   
    25    11    30 1   
    26    12    17 1   
    27    12    20 1   
    28    12    31 1   
    29    12    32 1   
    30    13    19 1   
    31    13    45 2   
    32    14    15 1   
    33    14    20 1   
    34    14    36 1   
    35    14    37 1   
    36    15    16 1   
    37    15    38 1   
    38    15    39 1   
    39    16    17 1   
    40    16    47 1   
    41    17    40 1   
    42    17    41 1   
    43    19    46 1   
    44    21    22 1   
    45    21    44 1   
    46    33    46 1   
    47    34    46 1   
    48    35    46 1   
    49    42    47 1   
    50    43    47 1   
@<TRIPOS>SUBSTRUCTURE
     1 JE4         1 TEMP              0 ****  ****    0 ROOT
