@<TRIPOS>MOLECULE
JE4
   47    50     1     0     0
SMALL
abcg2


@<TRIPOS>ATOM
      1 C1          21.9000    40.6210     4.0180 cc         1 JE4      -0.340600
      2 C2          23.1420    39.9840     4.0770 cd         1 JE4       0.186400
      3 C3          23.9830    41.0390     2.2820 cc         1 JE4       0.745800
      4 C11         28.4660    42.4440     0.6370 c3         1 JE4      -0.082100
      5 C12         21.1610    40.1020     5.1140 cc         1 JE4       0.384500
      6 C13         19.7660    40.3980     5.4950 ca         1 JE4      -0.102500
      7 C14         19.4510    41.1440     6.6370 ca         1 JE4       0.151000
      8 C15         18.1160    41.3990     6.9570 ca         1 JE4       0.117000
      9 C16         17.0940    40.9230     6.1460 ca         1 JE4      -0.089000
     10 C17         17.4040    40.1920     5.0080 ca         1 JE4      -0.103000
     11 C18         18.7280    39.9340     4.6870 ca         1 JE4      -0.069000
     12 C10         25.3530    42.7150     1.0950 c6         1 JE4       0.219800
     13 C4          21.6560    41.5350     2.9490 c          1 JE4       0.620600
     14 C6          26.1490    40.4190     1.3490 c6         1 JE4       0.219800
     15 C7          27.3000    40.8720     2.2440 c6         1 JE4      -0.118400
     16 C8          27.7320    42.3290     1.9750 c6         1 JE4       0.172200
     17 C9          26.4790    43.2150     2.0010 c6         1 JE4      -0.118400
     18 N1          24.1970    40.1980     3.2740 nd         1 JE4      -0.712100
     19 N2          22.7470    41.6290     2.0440 n          1 JE4      -0.360300
     20 N3          24.9950    41.3230     1.4120 nh         1 JE4      -0.751600
     21 N5          23.0920    39.1600     5.1440 na         1 JE4      -0.022200
     22 N6          21.8880    39.2210     5.7840 nd         1 JE4      -0.486800
     23 CL1         17.6940    42.3230     8.3700 cl         1 JE4      -0.183000
     24 CL2         20.7250    41.7840     7.6320 cl         1 JE4      -0.171000
     25 H1          29.3810    41.8470     0.6600 hc         1 JE4       0.040367
     26 H2          27.8610    42.0910    -0.1970 hc         1 JE4       0.040367
     27 H3          28.7380    43.4840     0.4470 hc         1 JE4       0.040367
     28 H4          16.0670    41.1310     6.4110 ha         1 JE4       0.131000
     29 H5          16.6080    39.8230     4.3750 ha         1 JE4       0.123000
     30 H6          18.9760    39.3660     3.8000 ha         1 JE4       0.127000
     31 H7          24.4910    43.3600     1.2200 h1         1 JE4       0.062700
     32 H8          25.6450    42.7580     0.0440 h1         1 JE4       0.062700
     33 H9          21.4130    41.9010     0.4720 h1         1 JE4       0.056700
     34 H10         22.4230    43.3140     0.7850 h1         1 JE4       0.056700
     35 H11         23.1280    41.8790     0.0050 h1         1 JE4       0.056700
     36 H12         25.8200    39.4190     1.6170 h1         1 JE4       0.062700
     37 H13         26.4680    40.3970     0.3050 h1         1 JE4       0.062700
     38 H14         28.1540    40.2050     2.1000 hc         1 JE4       0.058700
     39 H15         26.9880    40.7920     3.2880 hc         1 JE4       0.058700
     40 H16         26.7430    44.2340     1.7080 hc         1 JE4       0.058700
     41 H17         26.1010    43.2570     3.0270 hc         1 JE4       0.058700
     42 H18         28.2090    42.7190     3.9290 hn         1 JE4       0.396000
     43 H19         29.4810    42.2470     3.0380 hn         1 JE4       0.396000
     44 H21         23.8190    38.5540     5.4920 hn         1 JE4       0.386000
     45 O1          20.6270    42.1670     2.7320 o          1 JE4      -0.530000
     46 C5          22.4140    42.2260     0.7440 c3         1 JE4       0.080300
     47 N4          28.6470    42.8280     3.0180 n8         1 JE4      -0.993200
@<TRIPOS>BOND
     1     1     2 2   
     2     1     5 1   
     3     1    13 1   
     4     2    18 1   
     5     2    21 1   
     6     3    18 2   
     7     3    19 1   
     8     3    20 1   
     9     4    16 1   
    10     4    25 1   
    11     4    26 1   
    12     4    27 1   
    13     5     6 1   
    14     5    22 2   
    15     6     7 ar  
    16     6    11 ar  
    17     7     8 ar  
    18     7    24 1   
    19     8     9 ar  
    20     8    23 1   
    21     9    10 ar  
    22     9    28 1   
    23    10    11 ar  
    24    10    29 1   
    25    11    30 1   
    26    12    17 1   
    27    12    20 1   
    28    12    31 1   
    29    12    32 1   
    30    13    19 1   
    31    13    45 2   
    32    14    15 1   
    33    14    20 1   
    34    14    36 1   
    35    14    37 1   
    36    15    16 1   
    37    15    38 1   
    38    15    39 1   
    39    16    17 1   
    40    16    47 1   
    41    17    40 1   
    42    17    41 1   
    43    19    46 1   
    44    21    22 1   
    45    21    44 1   
    46    33    46 1   
    47    34    46 1   
    48    35    46 1   
    49    42    47 1   
    50    43    47 1   
@<TRIPOS>SUBSTRUCTURE
     1 JE4         1 TEMP              0 ****  ****    0 ROOT
