@<TRIPOS>MOLECULE
JE5
   89    92     1     0     0
SMALL
abcg2


@<TRIPOS>ATOM
      1 N1           5.4670     5.7210    49.1620 nu         1 JE5      -0.865100
      2 C7           0.6740     4.7560    48.3010 cc         1 JE5      -0.352200
      3 C8           1.4600     5.0610    49.3460 cd         1 JE5       0.077900
      4 N2           0.2480     1.0970    49.8050 ns         1 JE5      -0.489900
      5 C9           0.9740     5.0350    50.7710 c          1 JE5       0.617300
      6 O1           2.7440     5.4070    49.2170 os         1 JE5      -0.222200
      7 C1           5.3540     5.6220    46.7470 ca         1 JE5      -0.056000
      8 O5           0.8260     0.7710    51.9680 o          1 JE5      -0.584100
      9 C5           3.2630     5.1790    45.6120 ca         1 JE5      -0.076000
     10 C6           1.1760     4.8350    46.9420 c          1 JE5       0.602900
     11 N3          -4.9150     5.5780    42.3080 n2         1 JE5      -0.074200
     12 C4           2.6070     5.1650    46.8440 ca         1 JE5      -0.206600
     13 O4           6.7730     4.6880    51.0190 o          1 JE5      -0.512000
     14 C3           3.3310     5.3990    48.0040 ca         1 JE5       0.109100
     15 O3           6.8660     3.6970    48.6960 o          1 JE5      -0.512000
     16 C2           4.7170     5.6070    47.9710 ca         1 JE5       0.239000
     17 N4          -5.6330     5.8680    43.1620 n1         1 JE5       0.250000
     18 N5          -6.5180     6.1680    43.8700 n2         1 JE5      -0.204400
     19 C31         -3.8190     4.6000    42.3310 c3         1 JE5       0.084800
     20 C30         -3.9170     3.6450    43.5090 c3         1 JE5       0.121600
     21 O8          -4.0620     4.3140    44.7230 os         1 JE5      -0.470000
     22 C29         -2.8800     4.9200    45.2180 c3         1 JE5       0.133600
     23 C28         -3.0830     5.3040    46.6590 c3         1 JE5       0.168600
     24 O7          -3.2300     4.1460    47.4370 os         1 JE5      -0.434000
     25 C27         -3.3610     4.4200    48.8080 c3         1 JE5       0.154600
     26 C26         -3.4620     3.1300    49.5810 c3         1 JE5       0.168600
     27 O6          -2.3160     2.3470    49.3580 os         1 JE5      -0.456000
     28 C25         -2.1850     1.2910    50.2750 c3         1 JE5       0.132600
     29 C24         -1.0230     0.4100    49.8600 c3         1 JE5       0.108000
     30 C20          2.3720     1.9090    50.5780 ca         1 JE5      -0.091600
     31 C19          2.9850     2.6040    51.6170 ca         1 JE5      -0.098500
     32 C18          4.1550     3.3100    51.3980 ca         1 JE5      -0.027500
     33 C21          2.9880     1.8580    49.3300 ca         1 JE5      -0.098500
     34 C22          4.1750     2.5340    49.1040 ca         1 JE5      -0.027500
     35 C17          4.7320     3.2770    50.1360 ca         1 JE5      -0.292500
     36 S            6.1250     4.3080    49.7800 sy         1 JE5       1.144600
     37 O            0.4900     4.6250    45.9560 o          1 JE5      -0.562100
     38 C            4.6130     5.4170    45.5890 ca         1 JE5       0.159000
     39 F            5.2530     5.4420    44.4150 f          1 JE5      -0.155000
     40 O2          -0.0610     4.4450    51.0330 o          1 JE5      -0.569100
     41 N            1.7380     5.6840    51.6500 ns         1 JE5      -0.479900
     42 C10          1.4780     5.7240    53.0740 c3         1 JE5       0.095000
     43 C11          0.9660     7.0780    53.5590 c6         1 JE5      -0.080700
     44 C16          0.9130     7.0910    55.0860 c6         1 JE5      -0.069900
     45 C15          0.4070     8.4250    55.6220 c6         1 JE5      -0.072900
     46 C14         -0.9540     8.7810    55.0310 c6         1 JE5      -0.075400
     47 C13         -0.9100     8.7680    53.5070 c6         1 JE5      -0.072900
     48 C12         -0.4000     7.4330    52.9730 c6         1 JE5      -0.069900
     49 H1           5.0660     6.3060    49.8900 hn         1 JE5       0.495000
     50 H2          -0.3480     4.4500    48.4730 ha         1 JE5       0.242000
     51 H3           0.4550     1.6080    48.9630 hn         1 JE5       0.319500
     52 H4           6.4210     5.7910    46.6950 ha         1 JE5       0.174000
     53 H5           2.7120     4.9980    44.6990 ha         1 JE5       0.154000
     54 H6          -6.3270     6.9460    44.5120 hn         1 JE5       0.519400
     55 H7          -2.9130     5.2090    42.3250 h1         1 JE5       0.138700
     56 H8          -3.8700     4.0820    41.3750 h1         1 JE5       0.138700
     57 H9          -4.7880     2.9990    43.3840 h1         1 JE5       0.101700
     58 H10         -3.0220     3.0110    43.4750 h1         1 JE5       0.101700
     59 H11         -2.0320     4.2310    45.1300 h1         1 JE5       0.055700
     60 H12         -2.6270     5.8270    44.6550 h1         1 JE5       0.055700
     61 H13         -2.2090     5.8890    46.9770 h1         1 JE5       0.029700
     62 H14         -3.9580     5.9640    46.7570 h1         1 JE5       0.029700
     63 H15         -2.5050     5.0050    49.1760 h1         1 JE5       0.034200
     64 H16         -4.2610     5.0160    49.0130 h1         1 JE5       0.034200
     65 H17         -3.5690     3.3890    50.6430 h1         1 JE5       0.037700
     66 H18         -4.3690     2.5810    49.2940 h1         1 JE5       0.037700
     67 H19         -2.0290     1.6750    51.2920 h1         1 JE5       0.040700
     68 H20         -3.0920     0.6700    50.3000 h1         1 JE5       0.040700
     69 H21         -0.9520    -0.4260    50.5540 h1         1 JE5       0.065700
     70 H22         -1.2140    -0.0100    48.8710 h1         1 JE5       0.065700
     71 H23          2.5300     2.6220    52.5980 ha         1 JE5       0.134000
     72 H24          4.5980     3.8830    52.2010 ha         1 JE5       0.140500
     73 H25          2.5620     1.2800    48.5200 ha         1 JE5       0.134000
     74 H26          4.6460     2.4770    48.1320 ha         1 JE5       0.140500
     75 H27          2.5710     6.1540    51.3310 hn         1 JE5       0.324500
     76 H28          0.7610     4.9410    53.3190 h1         1 JE5       0.065700
     77 H29          2.4120     5.4790    53.5840 h1         1 JE5       0.065700
     78 H30          1.6850     7.8460    53.2420 hc         1 JE5       0.047700
     79 H31          0.2530     6.2860    55.4290 hc         1 JE5       0.041700
     80 H32          1.9050     6.8740    55.4940 hc         1 JE5       0.041700
     81 H33          1.1280     9.2120    55.3730 hc         1 JE5       0.041450
     82 H34          0.3500     8.3920    56.7120 hc         1 JE5       0.041450
     83 H35         -1.2810     9.7580    55.3940 hc         1 JE5       0.043700
     84 H36         -1.6980     8.0550    55.3780 hc         1 JE5       0.043700
     85 H37         -0.2560     9.5730    53.1560 hc         1 JE5       0.041450
     86 H38         -1.9020     8.9770    53.0980 hc         1 JE5       0.041450
     87 H39         -1.1150     6.6420    53.2270 hc         1 JE5       0.041700
     88 H40         -0.3480     7.4680    51.8820 hc         1 JE5       0.041700
     89 C23          1.0760     1.2080    50.8550 c          1 JE5       0.609700
@<TRIPOS>BOND
     1     1    16 1   
     2     1    36 1   
     3     1    49 1   
     4     2     3 2   
     5     2    10 1   
     6     2    50 1   
     7     3     5 1   
     8     3     6 1   
     9     4    29 1   
    10     4    51 1   
    11     4    89 1   
    12     5    40 2   
    13     5    41 1   
    14     6    14 1   
    15     7    16 ar  
    16     7    38 ar  
    17     7    52 1   
    18     8    89 2   
    19     9    12 ar  
    20     9    38 ar  
    21     9    53 1   
    22    10    12 1   
    23    10    37 2   
    24    11    17 2   
    25    11    19 1   
    26    12    14 ar  
    27    13    36 2   
    28    14    16 ar  
    29    15    36 2   
    30    17    18 2   
    31    18    54 1   
    32    19    20 1   
    33    19    55 1   
    34    19    56 1   
    35    20    21 1   
    36    20    57 1   
    37    20    58 1   
    38    21    22 1   
    39    22    23 1   
    40    22    59 1   
    41    22    60 1   
    42    23    24 1   
    43    23    61 1   
    44    23    62 1   
    45    24    25 1   
    46    25    26 1   
    47    25    63 1   
    48    25    64 1   
    49    26    27 1   
    50    26    65 1   
    51    26    66 1   
    52    27    28 1   
    53    28    29 1   
    54    28    67 1   
    55    28    68 1   
    56    29    69 1   
    57    29    70 1   
    58    30    31 ar  
    59    30    33 ar  
    60    30    89 1   
    61    31    32 ar  
    62    31    71 1   
    63    32    35 ar  
    64    32    72 1   
    65    33    34 ar  
    66    33    73 1   
    67    34    35 ar  
    68    34    74 1   
    69    35    36 1   
    70    38    39 1   
    71    41    42 1   
    72    41    75 1   
    73    42    43 1   
    74    42    76 1   
    75    42    77 1   
    76    43    44 1   
    77    43    48 1   
    78    43    78 1   
    79    44    45 1   
    80    44    79 1   
    81    44    80 1   
    82    45    46 1   
    83    45    81 1   
    84    45    82 1   
    85    46    47 1   
    86    46    83 1   
    87    46    84 1   
    88    47    48 1   
    89    47    85 1   
    90    47    86 1   
    91    48    87 1   
    92    48    88 1   
@<TRIPOS>SUBSTRUCTURE
     1 JE5         1 TEMP              0 ****  ****    0 ROOT
