@<TRIPOS>MOLECULE
JE5
   89    92     1     0     0
SMALL
No Charge or Current Charge


@<TRIPOS>ATOM
      1 N1           5.3630     5.9360    49.2980 nu         1 JE5      -0.865100
      2 C7           0.5130     6.3470    47.9150 cc         1 JE5      -0.352200
      3 C8           1.1620     6.0950    49.1090 cd         1 JE5       0.077900
      4 N2           0.2470     0.6850    50.3030 ns         1 JE5      -0.489900
      5 C9           0.4210     5.8830    50.3980 c          1 JE5       0.617300
      6 O1           2.5390     6.0490    49.1100 os         1 JE5      -0.222200
      7 C1           5.5000     6.1680    46.8970 ca         1 JE5      -0.056000
      8 O5           0.5200     1.2520    52.4810 o          1 JE5      -0.584100
      9 C5           3.4920     6.4620    45.5550 ca         1 JE5      -0.076000
     10 C6           1.2080     6.4900    46.6430 c          1 JE5       0.602900
     11 N3          -5.5630     4.9690    42.1400 n2         1 JE5      -0.074200
     12 C4           2.6950     6.3730    46.7180 ca         1 JE5      -0.206600
     13 O4           6.6910     4.9060    51.1160 o          1 JE5      -0.512000
     14 C3           3.3100     6.1760    47.9700 ca         1 JE5       0.109100
     15 O3           6.6760     3.9060    48.7490 o          1 JE5      -0.512000
     16 C2           4.7230     6.0830    48.0640 ca         1 JE5       0.239000
     17 N4          -4.7340     5.8900    42.2110 n1         1 JE5       0.250000
     18 N5          -5.2620     6.8900    42.7120 n2         1 JE5      -0.204400
     19 C31         -5.0400     3.5950    42.1560 c3         1 JE5       0.084800
     20 C30         -5.3010     2.9180    43.5270 c3         1 JE5       0.121600
     21 O8          -4.6560     3.6560    44.5950 os         1 JE5      -0.470000
     22 C29         -3.2120     3.5710    44.6550 c3         1 JE5       0.133600
     23 C28         -2.7190     4.3220    45.9140 c3         1 JE5       0.168600
     24 O7          -3.0530     3.5460    47.0810 os         1 JE5      -0.434000
     25 C27         -2.6430     4.1430    48.3270 c3         1 JE5       0.154600
     26 C26         -2.9910     3.1900    49.4930 c3         1 JE5       0.168600
     27 O6          -2.0790     2.0740    49.4610 os         1 JE5      -0.456000
     28 C25         -2.2020     1.1590    50.5670 c3         1 JE5       0.132600
     29 C24         -1.0920     0.0920    50.4300 c3         1 JE5       0.108000
     30 C20          2.1900     2.0570    50.9490 ca         1 JE5      -0.091600
     31 C19          2.9820     2.6360    51.9660 ca         1 JE5      -0.098500
     32 C18          4.1370     3.3710    51.6540 ca         1 JE5      -0.027500
     33 C21          2.5980     2.2210    49.6020 ca         1 JE5      -0.098500
     34 C22          3.7610     2.9450    49.2880 ca         1 JE5      -0.027500
     35 C17          4.5310     3.5290    50.3110 ca         1 JE5      -0.292500
     36 S            5.9870     4.4980    49.8990 sy         1 JE5       1.144600
     37 O            0.6120     6.6900    45.5940 o          1 JE5      -0.562100
     38 C            4.8870     6.3540    45.6510 ca         1 JE5       0.159000
     39 F            5.6440     6.4390    44.5360 f          1 JE5      -0.155000
     40 O2          -0.7970     5.9540    50.5070 o          1 JE5      -0.569100
     41 N            1.2420     5.5860    51.4660 ns         1 JE5      -0.479900
     42 C10          0.7850     5.3660    52.8420 c3         1 JE5       0.095000
     43 C11          0.9710     6.6110    53.7560 c6         1 JE5      -0.080700
     44 C16          0.6050     6.2710    55.2280 c6         1 JE5      -0.069900
     45 C15          0.7960     7.4920    56.1610 c6         1 JE5      -0.072900
     46 C14         -0.0220     8.7080    55.6650 c6         1 JE5      -0.075400
     47 C13          0.3420     9.0620    54.2020 c6         1 JE5      -0.072900
     48 C12          0.1550     7.8430    53.2650 c6         1 JE5      -0.069900
     49 H1           4.8090     6.2610    50.0790 hn         1 JE5       0.495000
     50 H2          -0.5650     6.4310    47.8570 ha         1 JE5       0.242000
     51 H3           0.6380     0.7740    49.3750 hn         1 JE5       0.319500
     52 H4           6.5810     6.1010    46.9610 ha         1 JE5       0.174000
     53 H5           3.0360     6.6130    44.5780 ha         1 JE5       0.154000
     54 H6          -4.8700     7.7330    42.2780 hn         1 JE5       0.519400
     55 H7          -3.9690     3.5590    41.9190 h1         1 JE5       0.138700
     56 H8          -5.5460     3.0040    41.3830 h1         1 JE5       0.138700
     57 H9          -6.3860     2.8840    43.6970 h1         1 JE5       0.101700
     58 H10         -4.9470     1.8780    43.4980 h1         1 JE5       0.101700
     59 H11         -2.8770     2.5260    44.7030 h1         1 JE5       0.055700
     60 H12         -2.7540     4.0370    43.7740 h1         1 JE5       0.055700
     61 H13         -1.6310     4.4540    45.8450 h1         1 JE5       0.029700
     62 H14         -3.1820     5.3170    45.9540 h1         1 JE5       0.029700
     63 H15         -1.5620     4.3310    48.3320 h1         1 JE5       0.034200
     64 H16         -3.1600     5.0990    48.4810 h1         1 JE5       0.034200
     65 H17         -2.8850     3.7400    50.4380 h1         1 JE5       0.037700
     66 H18         -4.0330     2.8550    49.4050 h1         1 JE5       0.037700
     67 H19         -2.0810     1.6870    51.5220 h1         1 JE5       0.040700
     68 H20         -3.1850     0.6700    50.5660 h1         1 JE5       0.040700
     69 H21         -1.1140    -0.5710    51.3050 h1         1 JE5       0.065700
     70 H22         -1.2910    -0.5200    49.5400 h1         1 JE5       0.065700
     71 H23          2.7000     2.5220    53.0110 ha         1 JE5       0.134000
     72 H24          4.7200     3.8120    52.4620 ha         1 JE5       0.140500
     73 H25          2.0220     1.8030    48.7820 ha         1 JE5       0.134000
     74 H26          4.0510     3.0620    48.2440 ha         1 JE5       0.140500
     75 H27          2.2320     5.5200    51.2640 hn         1 JE5       0.324500
     76 H28         -0.2730     5.0710    52.8400 h1         1 JE5       0.065700
     77 H29          1.3580     4.5310    53.2650 h1         1 JE5       0.065700
     78 H30          2.0410     6.8640    53.7180 hc         1 JE5       0.047700
     79 H31         -0.4380     5.9270    55.2830 hc         1 JE5       0.041700
     80 H32          1.2250     5.4370    55.5860 hc         1 JE5       0.041700
     81 H33          1.8610     7.7560    56.2110 hc         1 JE5       0.041450
     82 H34          0.4910     7.2300    57.1840 hc         1 JE5       0.041450
     83 H35          0.1640     9.5740    56.3150 hc         1 JE5       0.043700
     84 H36         -1.0960     8.4870    55.7360 hc         1 JE5       0.043700
     85 H37          1.3830     9.4090    54.1540 hc         1 JE5       0.041450
     86 H38         -0.2810     9.8970    53.8550 hc         1 JE5       0.041450
     87 H39         -0.9110     7.5840    53.2060 hc         1 JE5       0.041700
     88 H40          0.4640     8.1250    52.2490 hc         1 JE5       0.041700
     89 C23          0.9290     1.3030    51.3280 c          1 JE5       0.609700
@<TRIPOS>BOND
     1     1    16 1   
     2     1    36 1   
     3     1    49 1   
     4     2     3 2   
     5     2    10 1   
     6     2    50 1   
     7     3     5 1   
     8     3     6 1   
     9     4    29 1   
    10     4    51 1   
    11     4    89 1   
    12     5    40 2   
    13     5    41 1   
    14     6    14 1   
    15     7    16 ar  
    16     7    38 ar  
    17     7    52 1   
    18     8    89 2   
    19     9    12 ar  
    20     9    38 ar  
    21     9    53 1   
    22    10    12 1   
    23    10    37 2   
    24    11    17 2   
    25    11    19 1   
    26    12    14 ar  
    27    13    36 2   
    28    14    16 ar  
    29    15    36 2   
    30    17    18 2   
    31    18    54 1   
    32    19    20 1   
    33    19    55 1   
    34    19    56 1   
    35    20    21 1   
    36    20    57 1   
    37    20    58 1   
    38    21    22 1   
    39    22    23 1   
    40    22    59 1   
    41    22    60 1   
    42    23    24 1   
    43    23    61 1   
    44    23    62 1   
    45    24    25 1   
    46    25    26 1   
    47    25    63 1   
    48    25    64 1   
    49    26    27 1   
    50    26    65 1   
    51    26    66 1   
    52    27    28 1   
    53    28    29 1   
    54    28    67 1   
    55    28    68 1   
    56    29    69 1   
    57    29    70 1   
    58    30    31 ar  
    59    30    33 ar  
    60    30    89 1   
    61    31    32 ar  
    62    31    71 1   
    63    32    35 ar  
    64    32    72 1   
    65    33    34 ar  
    66    33    73 1   
    67    34    35 ar  
    68    34    74 1   
    69    35    36 1   
    70    38    39 1   
    71    41    42 1   
    72    41    75 1   
    73    42    43 1   
    74    42    76 1   
    75    42    77 1   
    76    43    44 1   
    77    43    48 1   
    78    43    78 1   
    79    44    45 1   
    80    44    79 1   
    81    44    80 1   
    82    45    46 1   
    83    45    81 1   
    84    45    82 1   
    85    46    47 1   
    86    46    83 1   
    87    46    84 1   
    88    47    48 1   
    89    47    85 1   
    90    47    86 1   
    91    48    87 1   
    92    48    88 1   
@<TRIPOS>SUBSTRUCTURE
     1 JE5         1 TEMP              0 ****  ****    0 ROOT
