@<TRIPOS>MOLECULE
JE6
   50    53     1     0     0
SMALL
bcc


@<TRIPOS>ATOM
      1 C4           2.6000    18.0140   -11.1640 ca         1 JE6      -0.324300
      2 C14          1.4120    20.0550    -9.5930 c5         1 JE6       0.095000
      3 C5           3.0940    17.0740   -12.0600 ca         1 JE6       0.570200
      4 C6           1.5800    15.1730   -11.5060 c          1 JE6       0.687100
      5 C11         -0.5280    13.8690   -15.8820 ca         1 JE6      -0.120000
      6 C7           1.2990    13.7610   -11.9880 c3         1 JE6      -0.114100
      7 C8           0.6600    13.7810   -13.3540 ca         1 JE6      -0.095300
      8 C9           1.3810    13.4220   -14.4890 ca         1 JE6      -0.118500
      9 C10          0.7920    13.4650   -15.7460 ca         1 JE6      -0.124500
     10 C12         -1.2570    14.2270   -14.7540 ca         1 JE6      -0.124500
     11 C13         -0.6660    14.1840   -13.5000 ca         1 JE6      -0.118500
     12 C3           3.1920    19.2760   -11.1540 ca         1 JE6       0.135600
     13 C1           4.6500    18.5230   -12.8910 ca         1 JE6       0.476600
     14 C15          1.1360    21.4220    -8.9810 c5         1 JE6      -0.082400
     15 C16          2.5440    21.9510    -8.6870 c5         1 JE6      -0.044900
     16 C17          2.6300    23.4000    -8.7830 c1         1 JE6       0.228700
     17 C18          3.0780    21.4480    -7.3500 cx         1 JE6      -0.129700
     18 C19          2.8790    22.2190    -6.0860 cx         1 JE6      -0.116900
     19 C2           4.2340    19.5390   -12.0390 ca         1 JE6      -0.299300
     20 C20          4.2510    22.0810    -6.6760 cx         1 JE6      -0.116900
     21 C21          3.3890    21.3130    -9.8000 c          1 JE6       0.724500
     22 O1           4.4810    21.7010   -10.1370 o          1 JE6      -0.571500
     23 N            2.6010    15.7780   -12.1730 ns         1 JE6      -0.553400
     24 C            5.7670    18.7710   -13.8600 c3         1 JE6      -0.148400
     25 O            0.9320    15.7050   -10.6260 o          1 JE6      -0.584100
     26 N1           4.0950    17.3180   -12.8980 nb         1 JE6      -0.754000
     27 N2           2.6990    20.2320   -10.2630 n          1 JE6      -0.385000
     28 N3           2.6840    24.5460    -8.8600 n1         1 JE6      -0.347800
     29 H1           1.7970    17.7590   -10.4950 ha         1 JE6       0.174000
     30 H2           0.6450    19.7730   -10.3130 h1         1 JE6       0.065200
     31 H3           1.4760    19.2730    -8.8330 h1         1 JE6       0.065200
     32 H5           0.6390    13.2870   -11.2620 hc         1 JE6       0.076700
     33 H6           2.2270    13.1860   -12.0150 hc         1 JE6       0.076700
     34 H7           2.4120    13.1000   -14.3900 ha         1 JE6       0.133000
     35 H8           1.3660    13.1800   -16.6190 ha         1 JE6       0.134000
     36 H9          -2.2890    14.5390   -14.8520 ha         1 JE6       0.134000
     37 H10         -1.2420    14.4620   -12.6240 ha         1 JE6       0.133000
     38 H11          0.6310    22.0590    -9.7070 hc         1 JE6       0.073700
     39 H12          0.5220    21.3650    -8.0850 hc         1 JE6       0.073700
     40 H13          3.0030    20.3680    -7.2640 hc         1 JE6       0.088700
     41 H14          2.4020    23.1910    -6.1380 hc         1 JE6       0.080950
     42 H15          2.6380    21.6570    -5.1940 hc         1 JE6       0.080950
     43 H16          4.7170    20.5010   -12.0900 ha         1 JE6       0.172000
     44 H17          4.9620    21.4260    -6.1910 hc         1 JE6       0.080950
     45 H18          4.6970    22.9600    -7.1260 hc         1 JE6       0.080950
     46 H19          3.0820    15.2350   -12.8760 hn         1 JE6       0.336500
     47 H20          6.0190    17.8630   -14.4020 hc         1 JE6       0.054367
     48 H21          5.4890    19.5370   -14.5860 hc         1 JE6       0.054367
     49 H22          6.6590    19.1280   -13.3440 hc         1 JE6       0.054367
     50 H4          -0.9900    13.9000   -16.8600 ha         1 JE6       0.133000
@<TRIPOS>BOND
     1     1     3 ar  
     2     1    12 ar  
     3     1    29 1   
     4     2    14 1   
     5     2    27 1   
     6     2    30 1   
     7     2    31 1   
     8     3    23 1   
     9     3    26 ar  
    10     4     6 1   
    11     4    23 1   
    12     4    25 2   
    13     5     9 ar  
    14     5    10 ar  
    15     5    50 1   
    16     6     7 1   
    17     6    32 1   
    18     6    33 1   
    19     7     8 ar  
    20     7    11 ar  
    21     8     9 ar  
    22     8    34 1   
    23     9    35 1   
    24    10    11 ar  
    25    10    36 1   
    26    11    37 1   
    27    12    19 ar  
    28    12    27 1   
    29    13    19 ar  
    30    13    24 1   
    31    13    26 ar  
    32    14    15 1   
    33    14    38 1   
    34    14    39 1   
    35    15    16 1   
    36    15    17 1   
    37    15    21 1   
    38    16    28 3   
    39    17    18 1   
    40    17    20 1   
    41    17    40 1   
    42    18    20 1   
    43    18    41 1   
    44    18    42 1   
    45    19    43 1   
    46    20    44 1   
    47    20    45 1   
    48    21    22 2   
    49    21    27 1   
    50    23    46 1   
    51    24    47 1   
    52    24    48 1   
    53    24    49 1   
@<TRIPOS>SUBSTRUCTURE
     1 JE6         1 TEMP              0 ****  ****    0 ROOT
