@<TRIPOS>MOLECULE
JE6
   50    53     1     0     0
SMALL
No Charge or Current Charge


@<TRIPOS>ATOM
      1 C4           2.7260    18.1410   -11.2770 ca         1 JE6      -0.241000
      2 C14          1.4720    20.4130    -9.7430 c5         1 JE6       0.095000
      3 C5           3.2270    17.2000   -12.1930 ca         1 JE6       0.504900
      4 C6           1.6320    15.2680   -11.8980 c          1 JE6       0.620100
      5 C11         -1.1120    13.2960   -15.7110 ca         1 JE6      -0.102000
      6 C7           1.5170    13.7890   -12.2860 c3         1 JE6      -0.114100
      7 C8           0.5950    13.6110   -13.4880 ca         1 JE6      -0.095300
      8 C9           1.1100    13.6900   -14.7970 ca         1 JE6      -0.100500
      9 C10          0.2600    13.5320   -15.9050 ca         1 JE6      -0.106500
     10 C12         -1.6320    13.2180   -14.4080 ca         1 JE6      -0.106500
     11 C13         -0.7820    13.3750   -13.3000 ca         1 JE6      -0.100500
     12 C3           3.2640    19.4400   -11.2550 ca         1 JE6       0.043000
     13 C1           4.8180    18.6730   -12.9630 ca         1 JE6       0.411300
     14 C15          1.3960    21.8310    -9.1150 c5         1 JE6      -0.082400
     15 C16          2.8490    22.0490    -8.5700 c5         1 JE6      -0.044900
     16 C17          3.2390    23.4820    -8.6200 c1         1 JE6       0.317900
     17 C18          2.8330    21.4140    -7.1260 cx         1 JE6      -0.129700
     18 C19          2.5050    22.3210    -5.9540 cx         1 JE6      -0.116900
     19 C2           4.3740    19.6750   -12.0870 ca         1 JE6      -0.216000
     20 C20          3.9310    21.8540    -6.1770 cx         1 JE6      -0.116900
     21 C21          3.7320    21.2390    -9.5360 c          1 JE6       0.582000
     22 O1           4.9470    21.3110    -9.6820 o          1 JE6      -0.496000
     23 N            2.7760    15.8860   -12.3450 ns         1 JE6      -0.319900
     24 C            5.9830    18.9180   -13.9010 c3         1 JE6      -0.148400
     25 O            0.7550    15.8390   -11.2620 o          1 JE6      -0.584100
     26 N1           4.2500    17.4520   -13.0250 nb         1 JE6      -0.754000
     27 N2           2.8680    20.3610   -10.2200 n          1 JE6      -0.225400
     28 N3           3.5080    24.6130    -8.6810 n1         1 JE6      -0.437000
     29 H1           1.9380    17.8660   -10.5880 ha         1 JE6       0.156000
     30 H2           0.7490    20.2850   -10.5600 h1         1 JE6       0.065200
     31 H3           1.2900    19.6300    -8.9940 h1         1 JE6       0.065200
     32 H5           1.1180    13.2340   -11.4290 hc         1 JE6       0.076700
     33 H6           2.5100    13.3970   -12.5370 hc         1 JE6       0.076700
     34 H7           2.1710    13.8740   -14.9580 ha         1 JE6       0.115000
     35 H8           0.6640    13.5940   -16.9130 ha         1 JE6       0.116000
     36 H9          -2.6940    13.0360   -14.2570 ha         1 JE6       0.116000
     37 H10         -1.1950    13.3170   -12.2950 ha         1 JE6       0.115000
     38 H11          1.1520    22.5590    -9.9000 hc         1 JE6       0.073700
     39 H12          0.6130    21.9210    -8.3530 hc         1 JE6       0.073700
     40 H13          2.5210    20.3740    -7.0360 hc         1 JE6       0.088700
     41 H14          2.2760    23.3700    -6.1240 hc         1 JE6       0.080950
     42 H15          1.9600    21.8830    -5.1210 hc         1 JE6       0.080950
     43 H16          4.8800    20.6350   -12.0900 ha         1 JE6       0.154000
     44 H17          4.3280    21.1100    -5.4890 hc         1 JE6       0.080950
     45 H18          4.6650    22.5880    -6.5010 hc         1 JE6       0.080950
     46 H19          3.3940    15.3090   -12.8950 hn         1 JE6       0.170000
     47 H20          6.5040    17.9860   -14.1510 hc         1 JE6       0.054367
     48 H21          5.6370    19.3730   -14.8360 hc         1 JE6       0.054367
     49 H22          6.7180    19.5940   -13.4480 hc         1 JE6       0.054367
     50 H4          -1.7700    13.1740   -16.5690 ha         1 JE6       0.115000
@<TRIPOS>BOND
     1     1     3 ar  
     2     1    12 ar  
     3     1    29 1   
     4     2    14 1   
     5     2    27 1   
     6     2    30 1   
     7     2    31 1   
     8     3    23 1   
     9     3    26 ar  
    10     4     6 1   
    11     4    23 1   
    12     4    25 2   
    13     5     9 ar  
    14     5    10 ar  
    15     5    50 1   
    16     6     7 1   
    17     6    32 1   
    18     6    33 1   
    19     7     8 ar  
    20     7    11 ar  
    21     8     9 ar  
    22     8    34 1   
    23     9    35 1   
    24    10    11 ar  
    25    10    36 1   
    26    11    37 1   
    27    12    19 ar  
    28    12    27 1   
    29    13    19 ar  
    30    13    24 1   
    31    13    26 ar  
    32    14    15 1   
    33    14    38 1   
    34    14    39 1   
    35    15    16 1   
    36    15    17 1   
    37    15    21 1   
    38    16    28 3   
    39    17    18 1   
    40    17    20 1   
    41    17    40 1   
    42    18    20 1   
    43    18    41 1   
    44    18    42 1   
    45    19    43 1   
    46    20    44 1   
    47    20    45 1   
    48    21    22 2   
    49    21    27 1   
    50    23    46 1   
    51    24    47 1   
    52    24    48 1   
    53    24    49 1   
@<TRIPOS>SUBSTRUCTURE
     1 JE6         1 TEMP              0 ****  ****    0 ROOT
