@<TRIPOS>MOLECULE
JE7
   27    29     1     0     0
SMALL
bcc


@<TRIPOS>ATOM
      1 C1           2.3440    -0.2390    -0.3830 ca         1 JE7       0.413800
      2 C2           3.3660     0.2880     0.4310 ca         1 JE7       0.006100
      3 C12         -1.5930     1.0860    -0.8590 ca         1 JE7       0.020900
      4 C13         -1.9690     0.1960     0.1490 ca         1 JE7       0.063400
      5 C14         -2.1730     0.9780    -2.1160 ca         1 JE7      -0.074000
      6 C15         -2.9010    -0.8000    -0.1250 ca         1 JE7       0.015400
      7 C17         -3.1190    -0.0020    -2.3730 ca         1 JE7      -0.131000
      8 C18         -3.4790    -0.8980    -1.3820 ca         1 JE7      -0.098000
      9 C5           3.1510     1.5450     0.9700 ca         1 JE7      -0.051000
     10 C7           1.0260     1.5340    -0.1650 ca         1 JE7       0.515600
     11 C8           4.0360    -1.6270    -0.1990 cc         1 JE7       0.649700
     12 C9           1.9430     2.1690     0.6690 ca         1 JE7      -0.234300
     13 N11          4.7400    -2.7660    -0.3440 nv         1 JE7      -0.906800
     14 N3           1.2110     0.3360    -0.7050 nb         1 JE7      -0.661000
     15 N4           2.8040    -1.4690    -0.7690 na         1 JE7      -0.405000
     16 N6           4.4080    -0.5970     0.5260 nd         1 JE7      -0.635100
     17 S10         -0.4670     2.4100    -0.5660 ss         1 JE7      -0.267200
     18 CL2         -1.2880     0.3230     1.7180 cl         1 JE7      -0.058400
     19 CL1         -3.3640    -1.9210     1.0980 cl         1 JE7      -0.082400
     20 H1          -1.8760     1.6650    -2.8970 ha         1 JE7       0.151000
     21 H2          -3.5680    -0.0780    -3.3540 ha         1 JE7       0.141000
     22 H3          -4.2060    -1.6750    -1.5780 ha         1 JE7       0.150000
     23 H4           3.8760     2.0230     1.6150 ha         1 JE7       0.153000
     24 H5           1.7120     3.1380     1.0910 ha         1 JE7       0.152000
     25 H6           5.7130    -2.7190    -0.0920 hn         1 JE7       0.429300
     26 H7           4.5420    -3.3570    -1.1350 hn         1 JE7       0.429300
     27 H8           2.3240    -2.1310    -1.3590 hn         1 JE7       0.315700
@<TRIPOS>BOND
     1     1     2 ar  
     2     1    14 ar  
     3     1    15 1   
     4     2     9 ar  
     5     2    16 1   
     6     3     4 ar  
     7     3     5 ar  
     8     3    17 1   
     9     4     6 ar  
    10     4    18 1   
    11     5     7 ar  
    12     5    20 1   
    13     6     8 ar  
    14     6    19 1   
    15     7     8 ar  
    16     7    21 1   
    17     8    22 1   
    18     9    12 ar  
    19     9    23 1   
    20    10    12 ar  
    21    10    14 ar  
    22    10    17 1   
    23    11    13 1   
    24    11    15 1   
    25    11    16 2   
    26    12    24 1   
    27    13    25 1   
    28    13    26 1   
    29    15    27 1   
@<TRIPOS>SUBSTRUCTURE
     1 JE7         1 TEMP              0 ****  ****    0 ROOT
