@<TRIPOS>MOLECULE
JE7
   27    29     1     0     0
SMALL
No Charge or Current Charge


@<TRIPOS>ATOM
      1 C1           2.3930    -0.2510    -0.5270 ca         1 JE7       0.348500
      2 C2           3.2740     0.1700     0.4530 ca         1 JE7       0.071400
      3 C12         -1.6180     1.1650    -0.8950 ca         1 JE7      -0.106000
      4 C13         -2.0460     0.3910     0.2090 ca         1 JE7       0.155000
      5 C14         -2.1250     0.8920    -2.1790 ca         1 JE7      -0.056000
      6 C15         -2.9720    -0.6560     0.0120 ca         1 JE7       0.107000
      7 C17         -3.0470    -0.1510    -2.3690 ca         1 JE7      -0.113000
      8 C18         -3.4690    -0.9250    -1.2750 ca         1 JE7      -0.080000
      9 C5           3.0370     1.3710     1.1320 ca         1 JE7      -0.033000
     10 C7           1.0350     1.5780    -0.2480 ca         1 JE7       0.450300
     11 C8           4.0470    -1.6510    -0.2590 cc         1 JE7       0.649700
     12 C9           1.8820     2.0890     0.7620 ca         1 JE7      -0.151000
     13 N11          4.7930    -2.7290    -0.4580 nv         1 JE7      -1.017200
     14 N3           1.2880     0.4130    -0.9000 nb         1 JE7      -0.661000
     15 N4           2.9060    -1.4190    -0.9720 na         1 JE7      -0.455300
     16 N6           4.3360    -0.7170     0.6330 nd         1 JE7      -0.635100
     17 S10         -0.4340     2.5010    -0.7030 ss         1 JE7      -0.140300
     18 Cl2         -1.4370     0.7380     1.8340 cl         1 JE7      -0.150000
     19 Cl1         -3.5300    -1.6470     1.3620 cl         1 JE7      -0.174000
     20 H1          -1.7980     1.4860    -3.0300 ha         1 JE7       0.133000
     21 H2          -3.4330    -0.3590    -3.3650 ha         1 JE7       0.123000
     22 H3          -4.1830    -1.7320    -1.4230 ha         1 JE7       0.132000
     23 H4           3.7110     1.7290     1.9070 ha         1 JE7       0.135000
     24 H5           1.6370     3.0280     1.2510 ha         1 JE7       0.134000
     25 H6           5.7220    -2.6930    -0.0540 hn         1 JE7       0.484500
     26 H7           4.7160    -3.1950    -1.3550 hn         1 JE7       0.484500
     27 H8           2.5090    -2.0140    -1.6780 hn         1 JE7       0.366000
@<TRIPOS>BOND
     1     1     2 ar  
     2     1    14 ar  
     3     1    15 1   
     4     2     9 ar  
     5     2    16 1   
     6     3     4 ar  
     7     3     5 ar  
     8     3    17 1   
     9     4     6 ar  
    10     4    18 1   
    11     5     7 ar  
    12     5    20 1   
    13     6     8 ar  
    14     6    19 1   
    15     7     8 ar  
    16     7    21 1   
    17     8    22 1   
    18     9    12 ar  
    19     9    23 1   
    20    10    12 ar  
    21    10    14 ar  
    22    10    17 1   
    23    11    13 1   
    24    11    15 1   
    25    11    16 2   
    26    12    24 1   
    27    13    25 1   
    28    13    26 1   
    29    15    27 1   
@<TRIPOS>SUBSTRUCTURE
     1 JE7         1 TEMP              0 ****  ****    0 ROOT
