@<TRIPOS>MOLECULE
JE8
   47    50     1     0     0
SMALL
bcc


@<TRIPOS>ATOM
      1 C10          0.5250    -1.6120    -0.1980 ca         1 JE8      -0.056200
      2 C13         -2.6070     0.4070    -0.1260 cc         1 JE8       0.462800
      3 C15         -4.8720    -0.7900    -0.1880 cg         1 JE8       0.285800
      4 C17         -4.4480     1.6410    -0.4620 cd         1 JE8       0.203300
      5 C21         -2.0080    -1.8020     0.8710 ca         1 JE8      -0.131000
      6 C22         -1.1150    -2.8250     1.1090 ca         1 JE8      -0.085000
      7 C24          1.3260    -3.5850     0.6190 cc         1 JE8      -0.193200
      8 C01          2.7550     2.6190     2.1420 c3         1 JE8       0.153100
      9 N02          3.5420     1.8330     1.2200 n3         1 JE8      -0.713600
     10 C03          2.6930     0.9680     0.4220 c6         1 JE8       0.166800
     11 C04          4.3800     2.6800     0.3900 c6         1 JE8       0.163800
     12 C05          5.2630     1.8500    -0.5260 c6         1 JE8      -0.073400
     13 C06          4.4200     0.9120    -1.3780 c6         1 JE8      -0.072400
     14 C07          3.5100     0.0640    -0.4940 c6         1 JE8      -0.086700
     15 C08          2.6180    -0.8230    -1.3600 c3         1 JE8       0.049300
     16 N09          1.8230    -1.7680    -0.6050 na         1 JE8      -0.058400
     17 C11         -0.3740    -0.5800    -0.4430 ca         1 JE8      -0.109000
     18 C12         -1.6490    -0.6790     0.0970 ca         1 JE8      -0.124500
     19 C14         -4.0290     0.3270    -0.2240 cc         1 JE8      -0.291300
     20 N16         -5.5890    -1.6970    -0.1660 n1         1 JE8      -0.399800
     21 N18         -5.6910     2.1530    -0.5850 nv         1 JE8      -0.825200
     22 N19         -3.3270     2.3670    -0.4920 na         1 JE8      -0.045600
     23 N20         -2.2090     1.6430    -0.2870 nd         1 JE8      -0.525800
     24 C23          0.1750    -2.7450     0.5740 ca         1 JE8      -0.084800
     25 C25          2.2950    -2.9500    -0.1030 cd         1 JE8      -0.104100
     26 H1          -2.9930    -1.8570     1.3140 ha         1 JE8       0.139000
     27 H2          -1.4100    -3.6750     1.7120 ha         1 JE8       0.136000
     28 H3           1.4230    -4.5370     1.1160 ha         1 JE8       0.157000
     29 H4           2.1690     1.9660     2.7890 h1         1 JE8       0.031700
     30 H5           3.4090     3.2200     2.7760 h1         1 JE8       0.031700
     31 H6           2.0550     3.3050     1.6380 h1         1 JE8       0.031700
     32 H8           2.0850     0.3680     1.1040 h1         1 JE8       0.040200
     33 H9           1.9870     1.5560    -0.1970 h1         1 JE8       0.040200
     34 H10          3.7700     3.3720    -0.2210 h1         1 JE8       0.029700
     35 H11          4.9970     3.3020     1.0440 h1         1 JE8       0.029700
     36 H12          5.8550     2.5140    -1.1590 hc         1 JE8       0.048200
     37 H13          5.9670     1.2690     0.0780 hc         1 JE8       0.048200
     38 H14          3.8040     1.5010    -2.0680 hc         1 JE8       0.038700
     39 H15          5.0560     0.2700    -1.9920 hc         1 JE8       0.038700
     40 H16          4.1380    -0.5850     0.1300 hc         1 JE8       0.069700
     41 H17          1.9460    -0.2100    -1.9640 h1         1 JE8       0.057700
     42 H18          3.2370    -1.3880    -2.0600 h1         1 JE8       0.057700
     43 H19         -0.1020     0.2810    -1.0400 ha         1 JE8       0.142000
     44 H20         -5.7870     3.0330    -1.0660 hn         1 JE8       0.422800
     45 H21         -6.4270     1.5020    -0.8030 hn         1 JE8       0.422800
     46 H22         -3.2560     3.3650    -0.6190 hn         1 JE8       0.322700
     47 H23          3.3090    -3.2580    -0.3100 h4         1 JE8       0.160000
@<TRIPOS>BOND
     1     1    16 1   
     2     1    17 ar  
     3     1    24 ar  
     4     2    18 1   
     5     2    19 1   
     6     2    23 2   
     7     3    19 1   
     8     3    20 3   
     9     4    19 2   
    10     4    21 1   
    11     4    22 1   
    12     5     6 ar  
    13     5    18 ar  
    14     5    26 1   
    15     6    24 ar  
    16     6    27 1   
    17     7    24 1   
    18     7    25 2   
    19     7    28 1   
    20     8     9 1   
    21     8    29 1   
    22     8    30 1   
    23     8    31 1   
    24     9    10 1   
    25     9    11 1   
    26    10    14 1   
    27    10    32 1   
    28    10    33 1   
    29    11    12 1   
    30    11    34 1   
    31    11    35 1   
    32    12    13 1   
    33    12    36 1   
    34    12    37 1   
    35    13    14 1   
    36    13    38 1   
    37    13    39 1   
    38    14    15 1   
    39    14    40 1   
    40    15    16 1   
    41    15    41 1   
    42    15    42 1   
    43    16    25 1   
    44    17    18 ar  
    45    17    43 1   
    46    21    44 1   
    47    21    45 1   
    48    22    23 1   
    49    22    46 1   
    50    25    47 1   
@<TRIPOS>SUBSTRUCTURE
     1 JE8         1 TEMP              0 ****  ****    0 ROOT
