@<TRIPOS>MOLECULE
JE8
   47    50     1     0     0
SMALL
No Charge or Current Charge


@<TRIPOS>ATOM
      1 C10          0.5740    -1.7540    -0.2340 ca         1 JE8      -0.056200
      2 C13         -2.5700     0.3790    -0.3140 cc         1 JE8       0.397500
      3 C15         -4.8680    -0.6030     0.1830 cg         1 JE8       0.375000
      4 C17         -4.3490     1.7080    -0.4910 cd         1 JE8       0.291000
      5 C21         -2.0280    -1.8980     0.7500 ca         1 JE8      -0.113000
      6 C22         -1.1170    -2.9420     1.0120 ca         1 JE8      -0.067000
      7 C24          1.2950    -3.7180     0.6140 cc         1 JE8      -0.243200
      8 C01          2.6250     2.6160     2.2490 c3         1 JE8       0.153100
      9 N02          3.4500     1.8820     1.2650 n3         1 JE8      -0.713600
     10 C03          2.6390     0.9350     0.4470 c6         1 JE8       0.166800
     11 C04          4.2560     2.7940     0.4100 c6         1 JE8       0.163800
     12 C05          5.1950     2.0030    -0.5320 c6         1 JE8      -0.073400
     13 C06          4.3960     1.0040    -1.3990 c6         1 JE8      -0.072400
     14 C07          3.5270     0.0830    -0.5030 c6         1 JE8      -0.086700
     15 C08          2.6890    -0.9050    -1.3650 c3         1 JE8       0.078600
     16 N09          1.9100    -1.8950    -0.5980 na         1 JE8      -0.087700
     17 C11         -0.3130    -0.7000    -0.5080 ca         1 JE8      -0.091000
     18 C12         -1.6560    -0.7630    -0.0340 ca         1 JE8      -0.124500
     19 C14         -3.9850     0.4480    -0.1620 cc         1 JE8      -0.226000
     20 N16         -5.6230    -1.4510     0.4550 n1         1 JE8      -0.489000
     21 N18         -5.5770     2.3100    -0.5430 nv         1 JE8      -1.074000
     22 N19         -3.1770     2.3710    -0.8220 na         1 JE8      -0.045200
     23 N20         -2.0630     1.5420    -0.7130 nd         1 JE8      -0.525800
     24 C23          0.1750    -2.8340     0.4970 ca         1 JE8      -0.084800
     25 C25          2.3550    -3.1250    -0.0620 cd         1 JE8      -0.154100
     26 H1          -3.0070    -1.9850     1.2020 ha         1 JE8       0.121000
     27 H2          -1.4090    -3.8010     1.6120 ha         1 JE8       0.118000
     28 H3           1.3300    -4.6730     1.1360 ha         1 JE8       0.207000
     29 H4           2.0910     1.9170     2.9060 h1         1 JE8       0.031700
     30 H5           3.2540     3.2590     2.8790 h1         1 JE8       0.031700
     31 H6           1.8830     3.2490     1.7440 h1         1 JE8       0.031700
     32 H8           2.0770     0.2610     1.1110 h1         1 JE8       0.040200
     33 H9           1.9000     1.4900    -0.1510 h1         1 JE8       0.040200
     34 H10          3.5940     3.4320    -0.1950 h1         1 JE8       0.029700
     35 H11          4.8660     3.4620     1.0360 h1         1 JE8       0.029700
     36 H12          5.7480     2.7000    -1.1760 hc         1 JE8       0.048200
     37 H13          5.9430     1.4640     0.0640 hc         1 JE8       0.048200
     38 H14          3.7550     1.5560    -2.1010 hc         1 JE8       0.038700
     39 H15          5.0860     0.4030    -2.0070 hc         1 JE8       0.038700
     40 H16          4.1950    -0.5350     0.1140 hc         1 JE8       0.069700
     41 H17          2.0120    -0.3350    -2.0140 h1         1 JE8       0.057700
     42 H18          3.3730    -1.4570    -2.0220 h1         1 JE8       0.057700
     43 H19          0.0290     0.1490    -1.0940 ha         1 JE8       0.124000
     44 H20         -5.6870     3.2460    -0.9340 hn         1 JE8       0.478000
     45 H21         -6.4250     1.7640    -0.3950 hn         1 JE8       0.478000
     46 H22         -3.1030     3.3400    -1.1130 hn         1 JE8       0.373000
     47 H23          3.3740    -3.4760    -0.1980 h4         1 JE8       0.210000
@<TRIPOS>BOND
     1     1    16 1   
     2     1    17 ar  
     3     1    24 ar  
     4     2    18 1   
     5     2    19 1   
     6     2    23 2   
     7     3    19 1   
     8     3    20 3   
     9     4    19 2   
    10     4    21 1   
    11     4    22 1   
    12     5     6 ar  
    13     5    18 ar  
    14     5    26 1   
    15     6    24 ar  
    16     6    27 1   
    17     7    24 1   
    18     7    25 2   
    19     7    28 1   
    20     8     9 1   
    21     8    29 1   
    22     8    30 1   
    23     8    31 1   
    24     9    10 1   
    25     9    11 1   
    26    10    14 1   
    27    10    32 1   
    28    10    33 1   
    29    11    12 1   
    30    11    34 1   
    31    11    35 1   
    32    12    13 1   
    33    12    36 1   
    34    12    37 1   
    35    13    14 1   
    36    13    38 1   
    37    13    39 1   
    38    14    15 1   
    39    14    40 1   
    40    15    16 1   
    41    15    41 1   
    42    15    42 1   
    43    16    25 1   
    44    17    18 ar  
    45    17    43 1   
    46    21    44 1   
    47    21    45 1   
    48    22    23 1   
    49    22    46 1   
    50    25    47 1   
@<TRIPOS>SUBSTRUCTURE
     1 JE8         1 TEMP              0 ****  ****    0 ROOT
