@<TRIPOS>MOLECULE
JE9
   64    68     1     0     0
SMALL
abcg2


@<TRIPOS>ATOM
      1 CBE         -5.9840    11.7360     2.0110 cx         1 JE9      -0.126900
      2 CBF         -6.7200    12.5220     3.0510 cx         1 JE9      -0.126900
      3 CBD         -7.0900    11.1000     2.7880 cx         1 JE9       0.020300
      4 NBB         -8.3250    10.8280     2.1240 na         1 JE9       0.153800
      5 CBC         -9.5260    11.3640     2.3950 cc         1 JE9      -0.153000
      6 NBA         -8.3900     9.8930     1.1770 nc         1 JE9      -0.517800
      7 CAZ         -9.6590     9.8330     0.8300 cd         1 JE9       0.271900
      8 CAX        -10.4430    10.7490     1.5660 cd         1 JE9      -0.161000
      9 CAT        -11.8650    11.0680     1.4650 ca         1 JE9      -0.010000
     10 CAS        -12.8090    10.1220     1.0920 ca         1 JE9       0.191000
     11 FAY        -12.4170     8.8610     0.8770 f          1 JE9      -0.158000
     12 CAU        -12.3330    12.3510     1.7630 ca         1 JE9      -0.092000
     13 CAV        -13.6790    12.6750     1.7020 ca         1 JE9      -0.088300
     14 CBG        -14.1490    14.0490     2.0950 c3         1 JE9       0.213900
     15 OBH        -15.1120    14.5010     1.1720 oh         1 JE9      -0.654000
     16 CAW        -14.5860    11.7100     1.2780 ca         1 JE9      -0.098000
     17 CAR        -14.1590    10.4280     0.9630 ca         1 JE9      -0.081000
     18 NAQ        -15.0850     9.4480     0.5740 ns         1 JE9      -0.152000
     19 CAO        -15.0170     8.7970    -0.6260 c          1 JE9       0.654300
     20 OAP        -14.1040     8.9880    -1.4130 o          1 JE9      -0.584100
     21 CAI        -16.1120     7.8650    -0.8940 cc         1 JE9      -0.257200
     22 CAF        -16.3280     7.2150    -2.1240 cd         1 JE9      -0.013000
     23 CAA        -15.6520     7.2390    -3.3550 cd         1 JE9      -0.094000
     24 CAH        -17.1210     7.4310    -0.0310 cc         1 JE9      -0.109000
     25 CAG        -17.9510     6.5510    -0.6970 cd         1 JE9      -0.271300
     26 CAJ        -19.1310     5.8780    -0.1890 c          1 JE9       0.616300
     27 OAL        -19.8120     5.1330    -0.8760 o          1 JE9      -0.554100
     28 CAK        -19.4820     6.1580     1.2500 c3         1 JE9      -0.188100
     29 NAE        -17.4520     6.4260    -1.9900 na         1 JE9       0.196100
     30 CAD        -17.9200     5.6720    -3.0250 cd         1 JE9      -0.091000
     31 CAC        -17.2780     5.6830    -4.2190 cc         1 JE9      -0.150000
     32 CAB        -16.1270     6.4810    -4.3830 cc         1 JE9       0.148100
     33 OAM        -15.5180     6.5590    -5.6030 os         1 JE9      -0.363200
     34 CAN        -14.8660     5.4510    -6.0550 c          1 JE9       0.643100
     35 OBJ        -14.7050     4.4750    -5.3590 o          1 JE9      -0.512000
     36 NBI        -14.4540     5.6110    -7.3210 n          1 JE9      -0.394800
     37 CBL        -14.6010     6.8530    -8.0570 c3         1 JE9       0.095300
     38 CBK        -13.5870     4.6090    -7.9080 c3         1 JE9       0.095300
     39 H1          -4.9770    11.4040     2.2200 hc         1 JE9       0.084450
     40 H2          -6.1770    11.9740     0.9730 hc         1 JE9       0.084450
     41 H3          -6.2290    12.7380     3.9910 hc         1 JE9       0.084450
     42 H4          -7.3960    13.2960     2.7110 hc         1 JE9       0.084450
     43 H5          -6.8250    10.3610     3.5350 h1         1 JE9       0.102700
     44 H6          -9.6510    12.1250     3.1490 h4         1 JE9       0.153000
     45 H7          -9.9720     9.1550     0.0510 h4         1 JE9       0.053100
     46 H8         -11.6170    13.1160     2.0390 ha         1 JE9       0.112000
     47 H9         -13.2840    14.7220     2.1460 h1         1 JE9       0.025200
     48 H10        -14.5650    13.9990     3.1090 h1         1 JE9       0.025200
     49 H11        -15.5700    15.2520     1.5600 ho         1 JE9       0.443000
     50 H12        -15.6390    11.9440     1.1860 ha         1 JE9       0.125000
     51 H13        -15.9640     9.4590     1.0680 hn         1 JE9       0.150000
     52 H14        -14.7720     7.8540    -3.4650 ha         1 JE9       0.175000
     53 H15        -17.2530     7.7100     1.0040 ha         1 JE9       0.201000
     54 H16        -20.3740     5.6030     1.5290 hc         1 JE9       0.063033
     55 H17        -18.6680     5.8700     1.9160 hc         1 JE9       0.063033
     56 H18        -19.6680     7.2210     1.4080 hc         1 JE9       0.063033
     57 H19        -18.8050     5.0880    -2.8420 h4         1 JE9       0.181000
     58 H20        -17.6720     5.0900    -5.0320 ha         1 JE9       0.148000
     59 H21        -15.5550     7.3290    -7.8530 h1         1 JE9       0.046867
     60 H22        -13.7980     7.5590    -7.8340 h1         1 JE9       0.046867
     61 H23        -14.5660     6.6270    -9.1210 h1         1 JE9       0.046867
     62 H24        -13.7020     3.6550    -7.4030 h1         1 JE9       0.046867
     63 H25        -13.8510     4.4750    -8.9560 h1         1 JE9       0.046867
     64 H26        -12.5380     4.9090    -7.8540 h1         1 JE9       0.046867
@<TRIPOS>BOND
     1     1     2 1   
     2     1     3 1   
     3     1    39 1   
     4     1    40 1   
     5     2     3 1   
     6     2    41 1   
     7     2    42 1   
     8     3     4 1   
     9     3    43 1   
    10     4     5 1   
    11     4     6 1   
    12     5     8 2   
    13     5    44 1   
    14     6     7 2   
    15     7     8 1   
    16     7    45 1   
    17     8     9 1   
    18     9    10 ar  
    19     9    12 ar  
    20    10    11 1   
    21    10    17 ar  
    22    12    13 ar  
    23    12    46 1   
    24    13    14 1   
    25    13    16 ar  
    26    14    15 1   
    27    14    47 1   
    28    14    48 1   
    29    15    49 1   
    30    16    17 ar  
    31    16    50 1   
    32    17    18 1   
    33    18    19 1   
    34    18    51 1   
    35    19    20 2   
    36    19    21 1   
    37    21    22 2   
    38    21    24 1   
    39    22    23 1   
    40    22    29 1   
    41    23    32 2   
    42    23    52 1   
    43    24    25 2   
    44    24    53 1   
    45    25    26 1   
    46    25    29 1   
    47    26    27 2   
    48    26    28 1   
    49    28    54 1   
    50    28    55 1   
    51    28    56 1   
    52    29    30 1   
    53    30    31 2   
    54    30    57 1   
    55    31    32 1   
    56    31    58 1   
    57    32    33 1   
    58    33    34 1   
    59    34    35 2   
    60    34    36 1   
    61    36    37 1   
    62    36    38 1   
    63    37    59 1   
    64    37    60 1   
    65    37    61 1   
    66    38    62 1   
    67    38    63 1   
    68    38    64 1   
@<TRIPOS>SUBSTRUCTURE
     1 JE9         1 TEMP              0 ****  ****    0 ROOT
