@<TRIPOS>MOLECULE
JE9
   64    68     1     0     0
SMALL
No Charge or Current Charge


@<TRIPOS>ATOM
      1 CBE         -5.8170    11.9040     1.5800 cx         1 JE9      -0.126900
      2 CBF         -6.5470    12.8960     2.4520 cx         1 JE9      -0.126900
      3 CBD         -6.9850    11.4480     2.4270 cx         1 JE9       0.020300
      4 NBB         -8.2680    10.9560     1.9130 na         1 JE9       0.153800
      5 CBC         -9.4920    11.5170     2.2460 cc         1 JE9      -0.153000
      6 NBA         -8.3430     9.8890     1.0550 nc         1 JE9      -0.517800
      7 CAZ         -9.6430     9.7870     0.8510 cd         1 JE9       0.271900
      8 CAX        -10.4080    10.7560     1.5630 cd         1 JE9      -0.161000
      9 CAT        -11.8830    10.9610     1.5660 ca         1 JE9      -0.010000
     10 CAS        -12.7880    10.0890     0.9020 ca         1 JE9       0.191000
     11 FAY        -12.3340     8.9680     0.2990 f          1 JE9      -0.158000
     12 CAU        -12.4180    12.0670     2.2650 ca         1 JE9      -0.092000
     13 CAV        -13.8040    12.3020     2.3170 ca         1 JE9      -0.088300
     14 CBG        -14.3510    13.4950     3.0910 c3         1 JE9       0.213900
     15 OBH        -14.4450    14.6400     2.2360 oh         1 JE9      -0.654000
     16 CAW        -14.6800    11.4300     1.6500 ca         1 JE9      -0.098000
     17 CAR        -14.1830    10.3350     0.9270 ca         1 JE9      -0.081000
     18 NAQ        -15.1230     9.4880     0.2780 ns         1 JE9      -0.152000
     19 CAO        -15.0910     8.9020    -0.9800 c          1 JE9       0.654300
     20 OAP        -14.2160     9.1430    -1.8030 o          1 JE9      -0.584100
     21 CAI        -16.2400     7.9840    -1.2340 cc         1 JE9      -0.257200
     22 CAF        -16.4930     7.2740    -2.3850 cd         1 JE9      -0.013000
     23 CAA        -15.7500     7.2260    -3.6050 cd         1 JE9      -0.094000
     24 CAH        -17.2970     7.6690    -0.3160 cc         1 JE9      -0.109000
     25 CAG        -18.1940     6.7790    -0.8840 cd         1 JE9      -0.271300
     26 CAJ        -19.4130     6.2310    -0.2230 c          1 JE9       0.616300
     27 OAL        -20.1670     5.4460    -0.7820 o          1 JE9      -0.554100
     28 CAK        -19.7210     6.6740     1.2060 c3         1 JE9      -0.188100
     29 NAE        -17.6620     6.5630    -2.1590 na         1 JE9       0.196100
     30 CAD        -18.2230     5.7140    -3.1310 cd         1 JE9      -0.091000
     31 CAC        -17.5130     5.6530    -4.3290 cc         1 JE9      -0.150000
     32 CAB        -16.3050     6.4000    -4.5500 cc         1 JE9       0.148100
     33 OAM        -15.6240     6.3120    -5.7280 os         1 JE9      -0.363200
     34 CAN        -14.7030     5.3230    -5.9440 c          1 JE9       0.643100
     35 OBJ        -14.4160     4.4600    -5.1260 o          1 JE9      -0.512000
     36 NBI        -14.1120     5.4110    -7.2190 n          1 JE9      -0.394800
     37 CBL        -14.4990     6.4690    -8.1820 c3         1 JE9       0.095300
     38 CBK        -13.0890     4.4260    -7.6310 c3         1 JE9       0.095300
     39 H1          -4.8220    11.5910     1.8850 hc         1 JE9       0.084450
     40 H2          -5.9670    11.9670     0.5050 hc         1 JE9       0.084450
     41 H3          -6.0450    13.2550     3.3470 hc         1 JE9       0.084450
     42 H4          -7.1840    13.6280     1.9610 hc         1 JE9       0.084450
     43 H5          -6.7580    10.8430     3.3050 h1         1 JE9       0.102700
     44 H6          -9.5870    12.3670     2.9100 h4         1 JE9       0.153000
     45 H7          -9.9860     9.0110     0.1810 h4         1 JE9       0.053100
     46 H8         -11.7610    12.7600     2.7810 ha         1 JE9       0.112000
     47 H9         -13.6920    13.7090     3.9420 h1         1 JE9       0.025200
     48 H10        -15.3400    13.2410     3.4970 h1         1 JE9       0.025200
     49 H11        -14.8020    15.3720     2.7850 ho         1 JE9       0.443000
     50 H12        -15.7520    11.6150     1.6850 ha         1 JE9       0.125000
     51 H13        -15.9430     9.2740     0.8270 hn         1 JE9       0.150000
     52 H14        -14.8360     7.7790    -3.7860 ha         1 JE9       0.175000
     53 H15        -17.3730     8.0780     0.6910 ha         1 JE9       0.201000
     54 H16        -20.6340     6.2180     1.6030 hc         1 JE9       0.063033
     55 H17        -18.8540     6.4560     1.8410 hc         1 JE9       0.063033
     56 H18        -19.7710     7.7680     1.2370 hc         1 JE9       0.063033
     57 H19        -19.1330     5.1730    -2.9180 h4         1 JE9       0.181000
     58 H20        -17.8710     5.0220    -5.1360 ha         1 JE9       0.148000
     59 H21        -15.5770     6.4120    -8.3830 h1         1 JE9       0.046867
     60 H22        -14.2630     7.4550    -7.7630 h1         1 JE9       0.046867
     61 H23        -13.9600     6.3500    -9.1310 h1         1 JE9       0.046867
     62 H24        -13.5520     3.4370    -7.7370 h1         1 JE9       0.046867
     63 H25        -12.6340     4.7100    -8.5880 h1         1 JE9       0.046867
     64 H26        -12.2990     4.3720    -6.8700 h1         1 JE9       0.046867
@<TRIPOS>BOND
     1     1     2 1   
     2     1     3 1   
     3     1    39 1   
     4     1    40 1   
     5     2     3 1   
     6     2    41 1   
     7     2    42 1   
     8     3     4 1   
     9     3    43 1   
    10     4     5 1   
    11     4     6 1   
    12     5     8 2   
    13     5    44 1   
    14     6     7 2   
    15     7     8 1   
    16     7    45 1   
    17     8     9 1   
    18     9    10 ar  
    19     9    12 ar  
    20    10    11 1   
    21    10    17 ar  
    22    12    13 ar  
    23    12    46 1   
    24    13    14 1   
    25    13    16 ar  
    26    14    15 1   
    27    14    47 1   
    28    14    48 1   
    29    15    49 1   
    30    16    17 ar  
    31    16    50 1   
    32    17    18 1   
    33    18    19 1   
    34    18    51 1   
    35    19    20 2   
    36    19    21 1   
    37    21    22 2   
    38    21    24 1   
    39    22    23 1   
    40    22    29 1   
    41    23    32 2   
    42    23    52 1   
    43    24    25 2   
    44    24    53 1   
    45    25    26 1   
    46    25    29 1   
    47    26    27 2   
    48    26    28 1   
    49    28    54 1   
    50    28    55 1   
    51    28    56 1   
    52    29    30 1   
    53    30    31 2   
    54    30    57 1   
    55    31    32 1   
    56    31    58 1   
    57    32    33 1   
    58    33    34 1   
    59    34    35 2   
    60    34    36 1   
    61    36    37 1   
    62    36    38 1   
    63    37    59 1   
    64    37    60 1   
    65    37    61 1   
    66    38    62 1   
    67    38    63 1   
    68    38    64 1   
@<TRIPOS>SUBSTRUCTURE
     1 JE9         1 TEMP              0 ****  ****    0 ROOT
