@<TRIPOS>MOLECULE
JEA
   63    68     1     0     0
SMALL
No Charge or Current Charge


@<TRIPOS>ATOM
      1 C1          -0.2690    -1.6190    -0.1210 cc         1 JEA       0.510000
      2 C2           0.8900    -0.9720    -0.5010 cc         1 JEA      -0.311600
      3 C3           0.8590     0.2230    -1.3300 c          1 JEA       0.622600
      4 O1          -7.5610     0.8360    -0.5740 os         1 JEA      -0.453000
      5 O2           1.8550     0.7450    -1.8120 o          1 JEA      -0.527000
      6 C11         -7.7630     0.3750     0.7830 c5         1 JEA       0.128300
      7 C12         -6.3620     0.5640     1.4900 c5         1 JEA       0.142500
      8 C15          1.9500    -1.7180    -0.0630 cd         1 JEA      -0.017000
      9 C16          3.3940    -1.4190     0.0090 ca         1 JEA       0.045000
     10 C17          3.9250    -0.1630     0.3890 ca         1 JEA       0.027000
     11 C18          5.3340    -0.0080     0.4010 ca         1 JEA       0.639900
     12 C19          5.6900    -2.1930    -0.2150 ca         1 JEA       0.393900
     13 C20          4.3120    -2.4520    -0.2520 ca         1 JEA      -0.218000
     14 C21          7.3380     1.4940     0.8170 cx         1 JEA       0.173500
     15 C22          7.7280     2.9500     0.7690 cx         1 JEA      -0.130900
     16 C23          7.9560     2.0680    -0.4340 cx         1 JEA      -0.130900
     17 C10         -6.3400     1.6040    -0.6010 c5         1 JEA       0.153600
     18 C4          -1.5210     0.0010    -1.0470 cd         1 JEA       0.717800
     19 C5          -3.9510    -0.2870    -1.6160 c6         1 JEA       0.210800
     20 C6          -4.8970    -0.5560    -0.4170 c6         1 JEA      -0.096900
     21 C7          -5.3740     0.7630     0.2860 c5         1 JEA      -0.070000
     22 C8          -4.0760     1.5250     0.6930 c6         1 JEA      -0.096900
     23 C9          -3.1480     1.8090    -0.5130 c6         1 JEA       0.210800
     24 N1          -0.4340     0.6890    -1.5730 n          1 JEA      -0.362300
     25 N2          -1.5090    -1.1380    -0.3790 nc         1 JEA      -0.736700
     26 N3          -2.7880     0.5540    -1.2210 nh         1 JEA      -0.739600
     27 N4          -5.9590    -0.4700     2.4700 n8         1 JEA      -0.991200
     28 N5           1.3340    -2.8190     0.5500 na         1 JEA       0.027800
     29 N6          -0.0620    -2.7420     0.5200 nd         1 JEA      -0.509800
     30 N7           6.2010    -0.9860     0.0970 nb         1 JEA      -0.734000
     31 N8           5.9330     1.1870     0.7820 nu         1 JEA      -0.903100
     32 Cl1          2.8960     1.1350     1.0360 cl         1 JEA      -0.174000
     33 H1          -8.5070     1.0280     1.2600 h1         1 JEA       0.045700
     34 H2          -6.4120     1.5030     2.0620 h1         1 JEA       0.058700
     35 H9           6.4080    -2.9790    -0.4450 h4         1 JEA       0.022100
     36 H10          3.9690    -3.4460    -0.5260 ha         1 JEA       0.130000
     37 H11          7.9490     0.8270     1.4300 h1         1 JEA       0.084700
     38 H12          6.9390     3.6950     0.7080 hc         1 JEA       0.078700
     39 H13          8.5980     3.2550     1.3450 hc         1 JEA       0.078700
     40 H14          8.9770     1.7780    -0.6660 hc         1 JEA       0.078700
     41 H15          7.3140     2.2110    -1.2990 hc         1 JEA       0.078700
     42 H16         -5.9970     1.7270    -1.6360 h1         1 JEA       0.045700
     43 H17         -6.5320     2.5990    -0.1750 h1         1 JEA       0.045700
     44 H18         -3.6140    -1.2480    -2.0320 h1         1 JEA       0.058450
     45 H19         -4.5120     0.2150    -2.4170 h1         1 JEA       0.058450
     46 H20         -5.7510    -1.1400    -0.7780 hc         1 JEA       0.064950
     47 H21         -4.3720    -1.1960     0.3040 hc         1 JEA       0.064950
     48 H22         -4.3340     2.4760     1.1790 hc         1 JEA       0.064950
     49 H23         -3.5230     0.9420     1.4420 hc         1 JEA       0.064950
     50 H24         -3.6470     2.5000    -1.2080 h1         1 JEA       0.058450
     51 H25         -2.2450     2.3200    -0.1470 h1         1 JEA       0.058450
     52 H26         -6.7220    -0.6160     3.1420 hn         1 JEA       0.403500
     53 H27         -5.8880    -1.3710     1.9880 hn         1 JEA       0.403500
     54 H29          1.8130    -3.5870     1.0170 hn         1 JEA       0.379000
     55 H30          5.2520     1.8950     1.0520 hn         1 JEA       0.508000
     56 C14         -0.5990     1.8770    -2.4570 c3         1 JEA       0.082300
     57 C13         -8.3490    -1.0560     0.7320 c3         1 JEA      -0.104100
     58 H3          -7.6500    -1.7750     0.2910 hc         1 JEA       0.043033
     59 H4          -8.6040    -1.4110     1.7380 hc         1 JEA       0.043033
     60 H5          -9.2690    -1.0770     0.1370 hc         1 JEA       0.043033
     61 H6          -0.6010     2.7910    -1.8500 h1         1 JEA       0.052700
     62 H7           0.2150     1.9380    -3.1890 h1         1 JEA       0.052700
     63 H8          -1.5390     1.8160    -3.0200 h1         1 JEA       0.052700
@<TRIPOS>BOND
     1     1     2 1   
     2     1    25 1   
     3     1    29 2   
     4     2     3 1   
     5     2     8 2   
     6     3     5 2   
     7     3    24 1   
     8     4     6 1   
     9     4    17 1   
    10     6     7 1   
    11     6    33 1   
    12     6    57 1   
    13     7    21 1   
    14     7    27 1   
    15     7    34 1   
    16     8     9 1   
    17     8    28 1   
    18     9    10 ar  
    19     9    13 ar  
    20    10    11 ar  
    21    10    32 1   
    22    11    30 ar  
    23    11    31 1   
    24    12    13 ar  
    25    12    30 ar  
    26    12    35 1   
    27    13    36 1   
    28    14    15 1   
    29    14    16 1   
    30    14    31 1   
    31    14    37 1   
    32    15    16 1   
    33    15    38 1   
    34    15    39 1   
    35    16    40 1   
    36    16    41 1   
    37    17    21 1   
    38    17    42 1   
    39    17    43 1   
    40    18    24 1   
    41    18    25 2   
    42    18    26 1   
    43    19    20 1   
    44    19    26 1   
    45    19    44 1   
    46    19    45 1   
    47    20    21 1   
    48    20    46 1   
    49    20    47 1   
    50    21    22 1   
    51    22    23 1   
    52    22    48 1   
    53    22    49 1   
    54    23    26 1   
    55    23    50 1   
    56    23    51 1   
    57    24    56 1   
    58    27    52 1   
    59    27    53 1   
    60    28    29 1   
    61    28    54 1   
    62    31    55 1   
    63    56    61 1   
    64    56    62 1   
    65    56    63 1   
    66    57    58 1   
    67    57    59 1   
    68    57    60 1   
@<TRIPOS>SUBSTRUCTURE
     1 JEA         1 TEMP              0 ****  ****    0 ROOT
