@<TRIPOS>MOLECULE
JEA
   63    68     1     0     0
SMALL
abcg2


@<TRIPOS>ATOM
      1 C1          -0.3950    -1.5190    -0.4350 cc         1 JEA       0.510000
      2 C2           0.7470    -0.7170    -0.6040 cc         1 JEA      -0.311600
      3 C3           0.6490     0.5260    -1.3060 c          1 JEA       0.622600
      4 O1          -7.6250     0.5530    -0.1680 os         1 JEA      -0.453000
      5 O2           1.5700     1.2720    -1.5820 o          1 JEA      -0.527000
      6 C11         -7.3990     0.2970     1.2150 c5         1 JEA       0.128300
      7 C12         -5.9150     0.6810     1.4760 c5         1 JEA       0.142500
      8 C15          1.7950    -1.4710    -0.0990 cd         1 JEA      -0.017000
      9 C16          3.2390    -1.2480    -0.0340 ca         1 JEA       0.045000
     10 C17          3.7850    -0.1530     0.6040 ca         1 JEA       0.027000
     11 C18          5.1900     0.0190     0.6260 ca         1 JEA       0.639900
     12 C19          5.4600    -1.9290    -0.5500 ca         1 JEA       0.393900
     13 C20          4.1060    -2.1720    -0.6280 ca         1 JEA      -0.218000
     14 C21          7.1660     1.2410     1.3380 cx         1 JEA       0.173500
     15 C22          7.7040     2.6340     1.3620 cx         1 JEA      -0.130900
     16 C23          7.9390     1.7600     0.1680 cx         1 JEA      -0.130900
     17 C10         -6.5200     1.2490    -0.7080 c5         1 JEA       0.153600
     18 C4          -1.7470     0.0140    -1.3740 cd         1 JEA       0.717800
     19 C5          -4.0800    -0.4730    -1.7830 c6         1 JEA       0.210800
     20 C6          -4.8160    -0.6040    -0.4560 c6         1 JEA      -0.096900
     21 C7          -5.2990     0.7550     0.0640 c5         1 JEA      -0.070000
     22 C8          -4.1340     1.7390     0.0360 c6         1 JEA      -0.096900
     23 C9          -3.4210     1.8030    -1.3100 c6         1 JEA       0.210800
     24 N1          -0.6550     0.7980    -1.7370 n          1 JEA      -0.362300
     25 N2          -1.6470    -1.1270    -0.7660 nc         1 JEA      -0.736700
     26 N3          -2.9790     0.4770    -1.7430 nh         1 JEA      -0.739600
     27 N4          -5.1530    -0.1110     2.4120 n8         1 JEA      -0.991200
     28 N5           1.2280    -2.6110     0.3080 na         1 JEA       0.027800
     29 N6          -0.0940    -2.6760     0.1330 nd         1 JEA      -0.509800
     30 N7           5.9900    -0.8730     0.0520 nb         1 JEA      -0.734000
     31 N8           5.7550     1.0930     1.2220 nu         1 JEA      -0.903100
     32 CL1          2.7850     0.9910     1.4230 cl         1 JEA      -0.174000
     33 H1          -8.0480     0.9530     1.8100 h1         1 JEA       0.045700
     34 H2          -5.9110     1.7040     1.8670 h1         1 JEA       0.058700
     35 H9           6.1610    -2.6240    -0.9990 h4         1 JEA       0.022100
     36 H10          3.7250    -3.0400    -1.1470 ha         1 JEA       0.130000
     37 H11          7.6670     0.5090     1.9670 h1         1 JEA       0.084700
     38 H12          6.9970     3.4480     1.2610 hc         1 JEA       0.078700
     39 H13          8.5310     2.8390     2.0280 hc         1 JEA       0.078700
     40 H14          8.9310     1.3620     0.0020 hc         1 JEA       0.078700
     41 H15          7.3840     1.9810    -0.7350 hc         1 JEA       0.078700
     42 H16         -6.4850     1.0490    -1.7810 h1         1 JEA       0.045700
     43 H17         -6.6320     2.3360    -0.5790 h1         1 JEA       0.045700
     44 H18         -3.7050    -1.4420    -2.1060 h1         1 JEA       0.058450
     45 H19         -4.7640    -0.1240    -2.5630 h1         1 JEA       0.058450
     46 H20         -5.6510    -1.2970    -0.5950 hc         1 JEA       0.064950
     47 H21         -4.1390    -1.0600     0.2700 hc         1 JEA       0.064950
     48 H22         -4.4870     2.7440     0.2880 hc         1 JEA       0.064950
     49 H23         -3.4130     1.4590     0.8120 hc         1 JEA       0.064950
     50 H24         -4.0800     2.2100    -2.0810 h1         1 JEA       0.058450
     51 H25         -2.5790     2.4860    -1.2320 h1         1 JEA       0.058450
     52 H26         -5.4820     0.0520     3.3540 hn         1 JEA       0.403500
     53 H27         -5.2700    -1.1010     2.2370 hn         1 JEA       0.403500
     54 H29          1.7020    -3.3820     0.7570 hn         1 JEA       0.379000
     55 H30          5.1780     1.6690     1.8110 hn         1 JEA       0.508000
     56 C14         -0.7640     1.8480    -2.7480 c3         1 JEA       0.082300
     57 C13         -7.7670    -1.1380     1.5330 c3         1 JEA      -0.104100
     58 H3          -7.1300    -1.8590     1.0170 hc         1 JEA       0.043033
     59 H4          -7.6900    -1.3250     2.6050 hc         1 JEA       0.043033
     60 H5          -8.8000    -1.3380     1.2460 hc         1 JEA       0.043033
     61 H6          -0.7350     2.8430    -2.3070 h1         1 JEA       0.052700
     62 H7           0.0650     1.7580    -3.4440 h1         1 JEA       0.052700
     63 H8          -1.6900     1.7290    -3.3000 h1         1 JEA       0.052700
@<TRIPOS>BOND
     1     1     2 1   
     2     1    25 1   
     3     1    29 2   
     4     2     3 1   
     5     2     8 2   
     6     3     5 2   
     7     3    24 1   
     8     4     6 1   
     9     4    17 1   
    10     6     7 1   
    11     6    33 1   
    12     6    57 1   
    13     7    21 1   
    14     7    27 1   
    15     7    34 1   
    16     8     9 1   
    17     8    28 1   
    18     9    10 ar  
    19     9    13 ar  
    20    10    11 ar  
    21    10    32 1   
    22    11    30 ar  
    23    11    31 1   
    24    12    13 ar  
    25    12    30 ar  
    26    12    35 1   
    27    13    36 1   
    28    14    15 1   
    29    14    16 1   
    30    14    31 1   
    31    14    37 1   
    32    15    16 1   
    33    15    38 1   
    34    15    39 1   
    35    16    40 1   
    36    16    41 1   
    37    17    21 1   
    38    17    42 1   
    39    17    43 1   
    40    18    24 1   
    41    18    25 2   
    42    18    26 1   
    43    19    20 1   
    44    19    26 1   
    45    19    44 1   
    46    19    45 1   
    47    20    21 1   
    48    20    46 1   
    49    20    47 1   
    50    21    22 1   
    51    22    23 1   
    52    22    48 1   
    53    22    49 1   
    54    23    26 1   
    55    23    50 1   
    56    23    51 1   
    57    24    56 1   
    58    27    52 1   
    59    27    53 1   
    60    28    29 1   
    61    28    54 1   
    62    31    55 1   
    63    56    61 1   
    64    56    62 1   
    65    56    63 1   
    66    57    58 1   
    67    57    59 1   
    68    57    60 1   
@<TRIPOS>SUBSTRUCTURE
     1 JEA         1 TEMP              0 ****  ****    0 ROOT
