@<TRIPOS>MOLECULE
JEB
   38    41     1     0     0
SMALL
bcc


@<TRIPOS>ATOM
      1 C10          1.6030     1.6860     0.9180 ca         1 JEB      -0.131000
      2 C13         -0.8280     1.2770    -0.3110 ca         1 JEB      -0.053200
      3 C17         -3.4630    -0.7020    -0.6500 ca         1 JEB      -0.238600
      4 C20         -4.8190    -2.3470     1.0450 ca         1 JEB       0.410200
      5 C21         -3.4810    -2.6120     0.7920 ca         1 JEB      -0.247300
      6 C22         -2.7940    -1.7750    -0.0720 ca         1 JEB      -0.066000
      7 C24         -1.8560     3.1630     0.4550 cc         1 JEB      -0.188200
      8 C02          4.4200    -1.5120    -0.2930 cc         1 JEB       0.206300
      9 N03          3.3710    -2.3370    -0.3680 na         1 JEB      -0.047600
     10 N04          2.1830    -1.7170    -0.2210 nc         1 JEB      -0.528800
     11 C05          2.4610    -0.4490    -0.0510 cd         1 JEB       0.461800
     12 C06          3.8720    -0.2410    -0.0840 cd         1 JEB      -0.291300
     13 C07          4.6050     0.9510    -0.0150 ch         1 JEB       0.285800
     14 N08          5.2290     1.9230     0.0350 n1         1 JEB      -0.397800
     15 C09          1.3980     0.5440     0.1170 ca         1 JEB      -0.122500
     16 C11          0.6070     2.6220     1.1010 ca         1 JEB      -0.083000
     17 C12         -0.6340     2.4280     0.4870 ca         1 JEB      -0.083800
     18 C14          0.1750     0.3340    -0.5040 ca         1 JEB      -0.110000
     19 N15         -2.1010     1.3270    -0.8110 na         1 JEB      -0.060400
     20 C16         -2.7690     0.2790    -1.5560 c3         1 JEB       0.102600
     21 C18         -4.8070    -0.5390    -0.3310 ca         1 JEB       0.417200
     22 N19         -5.4760    -1.3340     0.4940 nb         1 JEB      -0.666000
     23 C23         -2.7140     2.4550    -0.3340 cd         1 JEB      -0.103100
     24 H1           2.5510     1.8250     1.4210 ha         1 JEB       0.138000
     25 H2          -5.3840    -2.9830     1.7180 h4         1 JEB       0.020100
     26 H3          -2.9930    -3.4570     1.2580 ha         1 JEB       0.145000
     27 H4          -1.7510    -1.9620    -0.2950 ha         1 JEB       0.146000
     28 H5          -2.0670     4.1030     0.9400 ha         1 JEB       0.157000
     29 H6           5.9220    -2.8680    -0.3490 hn         1 JEB       0.424800
     30 H7           6.4120    -1.2740    -0.1160 hn         1 JEB       0.424800
     31 H8           3.3970    -3.3370    -0.4950 hn         1 JEB       0.321700
     32 H9           0.7850     3.4910     1.7230 ha         1 JEB       0.137000
     33 H10          0.0310    -0.5340    -1.1340 ha         1 JEB       0.140000
     34 H11         -2.0350    -0.2250    -2.1850 h1         1 JEB       0.066200
     35 H12         -3.4860     0.7500    -2.2280 h1         1 JEB       0.066200
     36 H13         -5.3690     0.2780    -0.7740 h4         1 JEB       0.015100
     37 H14         -3.7350     2.6720    -0.6060 h4         1 JEB       0.160000
     38 N01          5.7010    -1.8930    -0.4710 nv         1 JEB      -0.826200
@<TRIPOS>BOND
     1     1    15 ar  
     2     1    16 ar  
     3     1    24 1   
     4     2    17 ar  
     5     2    18 ar  
     6     2    19 1   
     7     3     6 ar  
     8     3    20 1   
     9     3    21 ar  
    10     4     5 ar  
    11     4    22 ar  
    12     4    25 1   
    13     5     6 ar  
    14     5    26 1   
    15     6    27 1   
    16     7    17 1   
    17     7    23 2   
    18     7    28 1   
    19     8     9 1   
    20     8    12 2   
    21     8    38 1   
    22     9    10 1   
    23     9    31 1   
    24    10    11 2   
    25    11    12 1   
    26    11    15 1   
    27    12    13 1   
    28    13    14 3   
    29    15    18 ar  
    30    16    17 ar  
    31    16    32 1   
    32    18    33 1   
    33    19    20 1   
    34    19    23 1   
    35    20    34 1   
    36    20    35 1   
    37    21    22 ar  
    38    21    36 1   
    39    23    37 1   
    40    29    38 1   
    41    30    38 1   
@<TRIPOS>SUBSTRUCTURE
     1 JEB         1 TEMP              0 ****  ****    0 ROOT
