@<TRIPOS>MOLECULE
JEB
   38    41     1     0     0
SMALL
No Charge or Current Charge


@<TRIPOS>ATOM
      1 C10          1.5060     1.9200     0.8140 ca         1 JEB      -0.113000
      2 C13         -0.9820     1.5210    -0.3770 ca         1 JEB      -0.053200
      3 C17         -3.2140    -0.7720    -0.6220 ca         1 JEB      -0.173300
      4 C20         -3.7310    -2.8590     1.1060 ca         1 JEB       0.344900
      5 C21         -3.4180    -3.1450    -0.2330 ca         1 JEB      -0.164000
      6 C22         -3.1560    -2.0880    -1.1170 ca         1 JEB      -0.048000
      7 C24         -1.8250     3.5690     0.0610 cc         1 JEB      -0.238200
      8 C02          4.0890    -1.6060     0.1460 cc         1 JEB       0.294000
      9 N03          2.9770    -2.4020     0.3600 na         1 JEB      -0.047200
     10 N04          1.7920    -1.6850     0.4050 nc         1 JEB      -0.528800
     11 C05          2.2040    -0.4360     0.2300 cd         1 JEB       0.396500
     12 C06          3.6090    -0.3390     0.0490 cd         1 JEB      -0.226000
     13 C07          4.3760     0.8180    -0.2170 ch         1 JEB       0.375000
     14 N08          5.0280     1.7660    -0.4180 n1         1 JEB      -0.487000
     15 C09          1.2240     0.6720     0.1920 ca         1 JEB      -0.122500
     16 C11          0.5540     2.9610     0.8150 ca         1 JEB      -0.065000
     17 C12         -0.6790     2.7210     0.2020 ca         1 JEB      -0.083800
     18 C14         -0.0540     0.4680    -0.3900 ca         1 JEB      -0.092000
     19 N15         -2.2740     1.5510    -0.8880 na         1 JEB      -0.089700
     20 C16         -2.9370     0.4110    -1.5460 c3         1 JEB       0.131900
     21 C18         -3.5390    -0.5790     0.7380 ca         1 JEB       0.351900
     22 N19         -3.7960    -1.5980     1.5910 nb         1 JEB      -0.666000
     23 C23         -2.7970     2.8350    -0.6100 cd         1 JEB      -0.153100
     24 H1           2.4570     2.0840     1.3140 ha         1 JEB       0.120000
     25 H2          -3.9400    -3.6630     1.8110 h4         1 JEB       0.020100
     26 H3          -3.3820    -4.1760    -0.5730 ha         1 JEB       0.127000
     27 H4          -2.9130    -2.2870    -2.1600 ha         1 JEB       0.128000
     28 H5          -1.9330     4.5940     0.4100 ha         1 JEB       0.207000
     29 H6           5.5520    -3.0770     0.2890 hn         1 JEB       0.480000
     30 H7           6.1530    -1.4700     0.0070 hn         1 JEB       0.480000
     31 H8           2.9910    -3.4120     0.4660 hn         1 JEB       0.372000
     32 H9           0.7690     3.9170     1.2870 ha         1 JEB       0.119000
     33 H10         -0.3070    -0.4850    -0.8480 ha         1 JEB       0.122000
     34 H11         -2.3040     0.0860    -2.3810 h1         1 JEB       0.066200
     35 H12         -3.8860     0.7600    -1.9710 h1         1 JEB       0.066200
     36 H13         -3.6050     0.4220     1.1630 h4         1 JEB       0.015100
     37 H14         -3.8040     3.1220    -0.9020 h4         1 JEB       0.210000
     38 N01          5.3560    -2.1060     0.0440 nv         1 JEB      -1.075000
@<TRIPOS>BOND
     1     1    15 ar  
     2     1    16 ar  
     3     1    24 1   
     4     2    17 ar  
     5     2    18 ar  
     6     2    19 1   
     7     3     6 ar  
     8     3    20 1   
     9     3    21 ar  
    10     4     5 ar  
    11     4    22 ar  
    12     4    25 1   
    13     5     6 ar  
    14     5    26 1   
    15     6    27 1   
    16     7    17 1   
    17     7    23 2   
    18     7    28 1   
    19     8     9 1   
    20     8    12 2   
    21     8    38 1   
    22     9    10 1   
    23     9    31 1   
    24    10    11 2   
    25    11    12 1   
    26    11    15 1   
    27    12    13 1   
    28    13    14 3   
    29    15    18 ar  
    30    16    17 ar  
    31    16    32 1   
    32    18    33 1   
    33    19    20 1   
    34    19    23 1   
    35    20    34 1   
    36    20    35 1   
    37    21    22 ar  
    38    21    36 1   
    39    23    37 1   
    40    29    38 1   
    41    30    38 1   
@<TRIPOS>SUBSTRUCTURE
     1 JEB         1 TEMP              0 ****  ****    0 ROOT
