@<TRIPOS>MOLECULE
JEC
   51    54     1     0     0
SMALL
bcc


@<TRIPOS>ATOM
      1 C1           4.7690   -17.3380    -1.2170 c          1 JEC       0.925600
      2 C2           4.6650   -18.1160    -2.5440 c3         1 JEC      -0.208400
      3 C3           5.5590   -17.5750    -3.6550 c3         1 JEC      -0.059400
      4 C4           5.6230   -18.4610    -4.8830 c3         1 JEC       0.138400
      5 C23          6.5770   -25.9540     1.2720 ca         1 JEC      -0.028900
      6 C22          7.2090   -26.2520     0.0730 ca         1 JEC      -0.099000
      7 C21          7.4870   -25.2300    -0.8200 ca         1 JEC      -0.121500
      8 C24          6.2150   -24.6520     1.5840 ca         1 JEC      -0.099000
      9 C25          6.4810   -23.6360     0.6790 ca         1 JEC      -0.121500
     10 C20          7.1220   -23.9240    -0.5190 ca         1 JEC       0.047800
     11 N1           7.3720   -22.9050    -1.4610 na         1 JEC       0.160300
     12 N2           7.0160   -23.1160    -2.7310 nc         1 JEC      -0.529800
     13 C13          7.8180   -21.6350    -1.2560 cc         1 JEC      -0.031300
     14 C14          8.3220   -21.0990     0.0090 ca         1 JEC      -0.045000
     15 C19          7.9540   -19.8080     0.3890 ca         1 JEC      -0.102000
     16 C18          8.4460   -19.2560     1.5620 ca         1 JEC      -0.134500
     17 C17          9.3040   -19.9870     2.3730 ca         1 JEC      -0.133000
     18 C16          9.6780   -21.2710     1.9970 ca         1 JEC      -0.134500
     19 C15          9.1940   -21.8250     0.8220 ca         1 JEC      -0.102000
     20 C12          7.7330   -21.0060    -2.4730 cd         1 JEC      -0.242300
     21 C11          7.2250   -21.9750    -3.3640 cd         1 JEC       0.394800
     22 C6           6.9380   -21.8720    -4.7990 ca         1 JEC      -0.160500
     23 C7           7.1400   -22.9630    -5.6390 ca         1 JEC      -0.070000
     24 C8           6.8370   -22.8990    -6.9920 ca         1 JEC      -0.193000
     25 C9           6.3190   -21.7250    -7.5160 ca         1 JEC      -0.088000
     26 C10          6.1020   -20.6210    -6.7010 ca         1 JEC      -0.235000
     27 C5           6.4100   -20.6880    -5.3450 ca         1 JEC       0.185100
     28 O3           6.2250   -19.6820    -4.4820 os         1 JEC      -0.307900
     29 O2           5.9190   -17.0040    -0.8540 o          1 JEC      -0.848300
     30 O1           3.7100   -17.1320    -0.5930 o          1 JEC      -0.848300
     31 H1           3.6270   -18.1440    -2.8850 hc         1 JEC       0.026200
     32 H2           4.9420   -19.1540    -2.3300 hc         1 JEC       0.026200
     33 H3           6.5710   -17.4210    -3.2770 hc         1 JEC       0.051700
     34 H4           5.1980   -16.5950    -3.9790 hc         1 JEC       0.051700
     35 H5           6.2200   -17.9830    -5.6680 h1         1 JEC       0.017700
     36 H6           4.6220   -18.6460    -5.2910 h1         1 JEC       0.017700
     37 H7           7.4930   -27.2660    -0.1720 ha         1 JEC       0.146000
     38 H8           7.9860   -25.4550    -1.7530 ha         1 JEC       0.160000
     39 H9           5.7120   -24.4180     2.5120 ha         1 JEC       0.146000
     40 H10          6.1710   -22.6260     0.9110 ha         1 JEC       0.160000
     41 H11          7.2780   -19.2320    -0.2330 ha         1 JEC       0.159500
     42 H12          8.1540   -18.2520     1.8440 ha         1 JEC       0.135500
     43 H13          9.6840   -19.5570     3.2900 ha         1 JEC       0.120000
     44 H14         10.3560   -21.8430     2.6180 ha         1 JEC       0.135500
     45 H15          9.5110   -22.8180     0.5310 ha         1 JEC       0.159500
     46 H16          8.0420   -19.9970    -2.6870 ha         1 JEC       0.187000
     47 H17          7.5500   -23.8740    -5.2220 ha         1 JEC       0.135000
     48 H18          7.0090   -23.7570    -7.6280 ha         1 JEC       0.121000
     49 H19          6.0790   -21.6580    -8.5690 ha         1 JEC       0.116000
     50 H20          5.6890   -19.7180    -7.1300 ha         1 JEC       0.134000
     51 BR           6.1870   -27.3440     2.4870 br         1 JEC      -0.116100
@<TRIPOS>BOND
     1     1     2 1   
     2     1    29 1   
     3     1    30 1   
     4     2     3 1   
     5     2    31 1   
     6     2    32 1   
     7     3     4 1   
     8     3    33 1   
     9     3    34 1   
    10     4    28 1   
    11     4    35 1   
    12     4    36 1   
    13     5     6 ar  
    14     5     8 ar  
    15     5    51 1   
    16     6     7 ar  
    17     6    37 1   
    18     7    10 ar  
    19     7    38 1   
    20     8     9 ar  
    21     8    39 1   
    22     9    10 ar  
    23     9    40 1   
    24    10    11 1   
    25    11    12 1   
    26    11    13 1   
    27    12    21 2   
    28    13    14 1   
    29    13    20 2   
    30    14    15 ar  
    31    14    19 ar  
    32    15    16 ar  
    33    15    41 1   
    34    16    17 ar  
    35    16    42 1   
    36    17    18 ar  
    37    17    43 1   
    38    18    19 ar  
    39    18    44 1   
    40    19    45 1   
    41    20    21 1   
    42    20    46 1   
    43    21    22 1   
    44    22    23 ar  
    45    22    27 ar  
    46    23    24 ar  
    47    23    47 1   
    48    24    25 ar  
    49    24    48 1   
    50    25    26 ar  
    51    25    49 1   
    52    26    27 ar  
    53    26    50 1   
    54    27    28 1   
@<TRIPOS>SUBSTRUCTURE
     1 JEC         1 TEMP              0 ****  ****    0 ROOT
