@<TRIPOS>MOLECULE
JEC
   51    54     1     0     0
SMALL
No Charge or Current Charge


@<TRIPOS>ATOM
      1 C1           4.5460   -16.9790    -1.3110 c          1 JEC       0.715000
      2 C2           4.6460   -18.0130    -2.4440 c3         1 JEC      -0.208400
      3 C3           5.5690   -17.4780    -3.5720 c3         1 JEC      -0.059400
      4 C4           5.6420   -18.3840    -4.8210 c3         1 JEC       0.161600
      5 C23          6.7660   -26.0830     1.4070 ca         1 JEC      -0.028900
      6 C22          7.5130   -26.3600     0.2500 ca         1 JEC      -0.081000
      7 C21          7.6930   -25.3620    -0.7240 ca         1 JEC      -0.103500
      8 C24          6.1960   -24.8120     1.5910 ca         1 JEC      -0.081000
      9 C25          6.3760   -23.8150     0.6170 ca         1 JEC      -0.103500
     10 C20          7.1300   -24.0820    -0.5450 ca         1 JEC       0.047800
     11 N1           7.3190   -23.0890    -1.5110 na         1 JEC       0.211000
     12 N2           6.9280   -23.3170    -2.8120 nc         1 JEC      -0.529800
     13 C13          7.7300   -21.7920    -1.2370 cc         1 JEC      -0.082000
     14 C14          8.2790   -21.1710    -0.0290 ca         1 JEC      -0.045000
     15 C19          8.0570   -19.8010     0.2250 ca         1 JEC      -0.084000
     16 C18          8.5790   -19.1960     1.3820 ca         1 JEC      -0.116500
     17 C17          9.3310   -19.9530     2.2940 ca         1 JEC      -0.115000
     18 C16          9.5630   -21.3150     2.0480 ca         1 JEC      -0.116500
     19 C15          9.0410   -21.9210     0.8910 ca         1 JEC      -0.084000
     20 C12          7.6430   -21.1750    -2.4500 cd         1 JEC      -0.159000
     21 C11          7.1340   -22.1300    -3.3730 cd         1 JEC       0.329500
     22 C6           6.8870   -21.9230    -4.8160 ca         1 JEC      -0.160500
     23 C7           7.0490   -23.0030    -5.7140 ca         1 JEC      -0.052000
     24 C8           6.7840   -22.8440    -7.0830 ca         1 JEC      -0.175000
     25 C9           6.3350   -21.6120    -7.5750 ca         1 JEC      -0.070000
     26 C10          6.1410   -20.5370    -6.6930 ca         1 JEC      -0.217000
     27 C5           6.4070   -20.6860    -5.3120 ca         1 JEC       0.185100
     28 O3           6.1890   -19.6510    -4.4250 os         1 JEC      -0.331100
     29 O2           5.3770   -17.0190    -0.4180 o          1 JEC      -0.743000
     30 O1           3.6730   -16.1270    -1.3850 o          1 JEC      -0.743000
     31 H1           3.6630   -18.1680    -2.9070 hc         1 JEC       0.026200
     32 H2           5.1120   -18.9350    -2.0780 hc         1 JEC       0.026200
     33 H3           6.5820   -17.3310    -3.1780 hc         1 JEC       0.051700
     34 H4           5.2110   -16.4910    -3.8890 hc         1 JEC       0.051700
     35 H5           6.2830   -17.9050    -5.5730 h1         1 JEC       0.017700
     36 H6           4.6370   -18.5090    -5.2450 h1         1 JEC       0.017700
     37 H7           7.9520   -27.3450     0.1080 ha         1 JEC       0.128000
     38 H8           8.2740   -25.5810    -1.6180 ha         1 JEC       0.142000
     39 H9           5.6160   -24.6000     2.4870 ha         1 JEC       0.128000
     40 H10          5.9300   -22.8330     0.7650 ha         1 JEC       0.142000
     41 H11          7.4670   -19.2040    -0.4670 ha         1 JEC       0.141500
     42 H12          8.3960   -18.1400     1.5710 ha         1 JEC       0.117500
     43 H13          9.7340   -19.4840     3.1890 ha         1 JEC       0.102000
     44 H14         10.1500   -21.9020     2.7510 ha         1 JEC       0.117500
     45 H15          9.2440   -22.9740     0.7100 ha         1 JEC       0.141500
     46 H16          7.9300   -20.1560    -2.6760 ha         1 JEC       0.169000
     47 H17          7.3940   -23.9690    -5.3530 ha         1 JEC       0.117000
     48 H18          6.9240   -23.6810    -7.7630 ha         1 JEC       0.103000
     49 H19          6.1280   -21.4910    -8.6360 ha         1 JEC       0.098000
     50 H20          5.7780   -19.5980    -7.1000 ha         1 JEC       0.116000
     51 Br           6.5220   -27.4390     2.7320 br         1 JEC      -0.116100
@<TRIPOS>BOND
     1     1     2 1   
     2     1    29 1   
     3     1    30 1   
     4     2     3 1   
     5     2    31 1   
     6     2    32 1   
     7     3     4 1   
     8     3    33 1   
     9     3    34 1   
    10     4    28 1   
    11     4    35 1   
    12     4    36 1   
    13     5     6 ar  
    14     5     8 ar  
    15     5    51 1   
    16     6     7 ar  
    17     6    37 1   
    18     7    10 ar  
    19     7    38 1   
    20     8     9 ar  
    21     8    39 1   
    22     9    10 ar  
    23     9    40 1   
    24    10    11 1   
    25    11    12 1   
    26    11    13 1   
    27    12    21 2   
    28    13    14 1   
    29    13    20 2   
    30    14    15 ar  
    31    14    19 ar  
    32    15    16 ar  
    33    15    41 1   
    34    16    17 ar  
    35    16    42 1   
    36    17    18 ar  
    37    17    43 1   
    38    18    19 ar  
    39    18    44 1   
    40    19    45 1   
    41    20    21 1   
    42    20    46 1   
    43    21    22 1   
    44    22    23 ar  
    45    22    27 ar  
    46    23    24 ar  
    47    23    47 1   
    48    24    25 ar  
    49    24    48 1   
    50    25    26 ar  
    51    25    49 1   
    52    26    27 ar  
    53    26    50 1   
    54    27    28 1   
@<TRIPOS>SUBSTRUCTURE
     1 JEC         1 TEMP              0 ****  ****    0 ROOT
