@<TRIPOS>MOLECULE
JED
   39    42     1     0     0
SMALL
No Charge or Current Charge


@<TRIPOS>ATOM
      1 C1          -0.6330     0.8890     0.0580 ca         1 JED      -0.220900
      2 C2          -1.6370     1.7960    -0.1420 ca         1 JED       0.362500
      3 C3          -3.2820     0.1810     0.0710 cp         1 JED       0.422500
      4 C11         -7.1130     0.5310     0.2330 ca         1 JED      -0.125000
      5 C12         -5.7430     0.8420     0.2640 ca         1 JED      -0.083500
      6 C14          0.6020     1.6440    -0.0370 cc         1 JED       0.431500
      7 C15          1.9560     1.0820    -0.0970 ca         1 JED      -0.051900
      8 C16          2.2390    -0.0250    -0.9260 ca         1 JED      -0.068000
      9 C17          3.5500    -0.5240    -1.0270 ca         1 JED      -0.096000
     10 C18          4.5920     0.0950    -0.3190 ca         1 JED      -0.014900
     11 C19          4.3290     1.2190     0.4790 ca         1 JED      -0.096000
     12 C20          3.0190     1.7180     0.5800 ca         1 JED      -0.068000
     13 C10         -7.5390    -0.7820    -0.0320 ca         1 JED      -0.086300
     14 C4          -2.2910    -0.7980     0.3600 ca         1 JED      -0.188000
     15 C5          -0.9210    -0.4550     0.3830 ca         1 JED      -0.014600
     16 C6           0.1180    -1.4750     0.8040 c          1 JED       0.710600
     17 C7          -4.7520    -0.1520     0.0360 cp         1 JED      -0.125500
     18 C8          -5.2070    -1.4710    -0.2340 ca         1 JED      -0.083500
     19 C9          -6.5780    -1.7800    -0.2650 ca         1 JED      -0.125000
     20 N1          -2.9410     1.4780    -0.1360 nb         1 JED      -0.731000
     21 N2          -1.0170     3.0180    -0.2770 na         1 JED      -0.178100
     22 N3           0.3770     2.9560    -0.2030 nd         1 JED      -0.549100
     23 Br1          6.3740    -0.5810    -0.4590 br         1 JED      -0.145100
     24 H2          -7.8450     1.3140     0.4180 ha         1 JED       0.101000
     25 H3          -5.4480     1.8670     0.4770 ha         1 JED       0.128000
     26 H4          -9.3740    -1.4210     0.9310 hc         1 JED       0.033700
     27 H5          -9.6210    -0.2590    -0.3840 hc         1 JED       0.033700
     28 H6          -9.2300    -1.9420    -0.7570 hc         1 JED       0.033700
     29 H7           1.4440    -0.4960    -1.5000 ha         1 JED       0.130500
     30 H8           3.7560    -1.3840    -1.6600 ha         1 JED       0.118500
     31 H9           5.1390     1.7080     1.0160 ha         1 JED       0.118500
     32 H10          2.8250     2.5960     1.1930 ha         1 JED       0.130500
     33 H11         -2.5840    -1.8140     0.6000 ha         1 JED       0.132000
     34 H12         -4.4960    -2.2670    -0.4380 ha         1 JED       0.128000
     35 H13         -6.8920    -2.8000    -0.4750 ha         1 JED       0.101000
     36 H14         -1.5090     3.8970    -0.4080 hn         1 JED       0.367000
     37 C13         -9.0220    -1.1190    -0.0630 c3         1 JED      -0.039800
     38 O1           0.1070    -2.5670     0.2540 o          1 JED      -0.697000
     39 O2           0.8550    -1.1930     1.7390 o          1 JED      -0.697000
@<TRIPOS>BOND
     1     1     2 ar  
     2     1     6 1   
     3     1    15 ar  
     4     2    20 ar  
     5     2    21 1   
     6     3    14 ar  
     7     3    17 1   
     8     3    20 ar  
     9     4     5 ar  
    10     4    13 ar  
    11     4    24 1   
    12     5    17 ar  
    13     5    25 1   
    14     6     7 1   
    15     6    22 2   
    16     7     8 ar  
    17     7    12 ar  
    18     8     9 ar  
    19     8    29 1   
    20     9    10 ar  
    21     9    30 1   
    22    10    11 ar  
    23    10    23 1   
    24    11    12 ar  
    25    11    31 1   
    26    12    32 1   
    27    13    19 ar  
    28    13    37 1   
    29    14    15 ar  
    30    14    33 1   
    31    15    16 1   
    32    16    38 1   
    33    16    39 1   
    34    17    18 ar  
    35    18    19 ar  
    36    18    34 1   
    37    19    35 1   
    38    21    22 1   
    39    21    36 1   
    40    26    37 1   
    41    27    37 1   
    42    28    37 1   
@<TRIPOS>SUBSTRUCTURE
     1 JED         1 TEMP              0 ****  ****    0 ROOT
