@<TRIPOS>MOLECULE
JED
   39    42     1     0     0
SMALL
bcc


@<TRIPOS>ATOM
      1 C1          -0.6180     0.6860    -0.0220 ca         1 JED      -0.286200
      2 C2          -1.6510     1.6280    -0.1710 ca         1 JED       0.427800
      3 C3          -3.3050     0.1290    -0.0240 cp         1 JED       0.487800
      4 C11         -7.0290     0.5780     0.3460 ca         1 JED      -0.143000
      5 C12         -5.6690     0.8390     0.3200 ca         1 JED      -0.101500
      6 C14          0.5780     1.4620    -0.1170 cc         1 JED       0.431500
      7 C15          1.9840     1.0520    -0.0990 ca         1 JED      -0.051900
      8 C16          2.4040    -0.1070    -0.7490 ca         1 JED      -0.086000
      9 C17          3.7410    -0.4650    -0.7770 ca         1 JED      -0.114000
     10 C18          4.6730     0.3460    -0.1450 ca         1 JED      -0.014900
     11 C19          4.2840     1.5070     0.5050 ca         1 JED      -0.114000
     12 C20          2.9410     1.8520     0.5210 ca         1 JED      -0.086000
     13 C10         -7.5290    -0.6860     0.0380 ca         1 JED      -0.086300
     14 C4          -2.3570    -0.9040     0.1450 ca         1 JED      -0.271300
     15 C5          -1.0000    -0.6480     0.1800 ca         1 JED      -0.014600
     16 C6          -0.0320    -1.7670     0.5310 c          1 JED       0.921200
     17 C7          -4.7540    -0.1620    -0.0110 cp         1 JED      -0.125500
     18 C8          -5.2520    -1.4250    -0.3300 ca         1 JED      -0.101500
     19 C9          -6.6150    -1.6790    -0.3080 ca         1 JED      -0.143000
     20 N1          -2.9560     1.3990    -0.1690 nb         1 JED      -0.731000
     21 N2          -1.0510     2.8300    -0.3050 na         1 JED      -0.127800
     22 N3           0.2760     2.7320    -0.2800 nd         1 JED      -0.549100
     23 BR1          6.4990    -0.1360    -0.1750 br         1 JED      -0.145100
     24 H2          -7.7140     1.3740     0.6130 ha         1 JED       0.119000
     25 H3          -5.3110     1.8290     0.5680 ha         1 JED       0.146000
     26 H4          -9.2920    -1.2640     1.1140 hc         1 JED       0.033700
     27 H5          -9.5910    -0.0980    -0.1650 hc         1 JED       0.033700
     28 H6          -9.2790    -1.7900    -0.5620 hc         1 JED       0.033700
     29 H7           1.6910    -0.7350    -1.2670 ha         1 JED       0.148500
     30 H8           4.0430    -1.3670    -1.2930 ha         1 JED       0.136500
     31 H9           5.0070     2.1420     1.0000 ha         1 JED       0.136500
     32 H10          2.6380     2.7560     1.0330 ha         1 JED       0.148500
     33 H11         -2.7030    -1.9160     0.3070 ha         1 JED       0.150000
     34 H12         -4.5810    -2.2230    -0.6200 ha         1 JED       0.146000
     35 H13         -6.9730    -2.6670    -0.5720 ha         1 JED       0.119000
     36 H14         -1.4900     3.7260    -0.4500 hn         1 JED       0.316700
     37 C13         -8.9990    -0.9740     0.1030 c3         1 JED      -0.039800
     38 O1          -0.1250    -2.8080    -0.1400 o          1 JED      -0.802300
     39 O2           0.7270    -1.5180     1.4800 o          1 JED      -0.802300
@<TRIPOS>BOND
     1     1     2 ar  
     2     1     6 1   
     3     1    15 ar  
     4     2    20 ar  
     5     2    21 1   
     6     3    14 ar  
     7     3    17 1   
     8     3    20 ar  
     9     4     5 ar  
    10     4    13 ar  
    11     4    24 1   
    12     5    17 ar  
    13     5    25 1   
    14     6     7 1   
    15     6    22 2   
    16     7     8 ar  
    17     7    12 ar  
    18     8     9 ar  
    19     8    29 1   
    20     9    10 ar  
    21     9    30 1   
    22    10    11 ar  
    23    10    23 1   
    24    11    12 ar  
    25    11    31 1   
    26    12    32 1   
    27    13    19 ar  
    28    13    37 1   
    29    14    15 ar  
    30    14    33 1   
    31    15    16 1   
    32    16    38 1   
    33    16    39 1   
    34    17    18 ar  
    35    18    19 ar  
    36    18    34 1   
    37    19    35 1   
    38    21    22 1   
    39    21    36 1   
    40    26    37 1   
    41    27    37 1   
    42    28    37 1   
@<TRIPOS>SUBSTRUCTURE
     1 JED         1 TEMP              0 ****  ****    0 ROOT
