@<TRIPOS>MOLECULE
JEE
   55    59     1     0     0
SMALL
abcg2


@<TRIPOS>ATOM
      1 C10          3.6970     2.4320     1.2550 ca         1 JEE      -0.067000
      2 C13          0.7600     3.7590    -0.4010 cc         1 JEE      -0.151100
      3 C15         -0.1210     1.8410    -1.7430 c3         1 JEE       0.126900
      4 C17         -2.4330     1.9770    -0.7600 ca         1 JEE      -0.092500
      5 C20         -4.5110    -0.3630     1.3850 c3         1 JEE       0.213100
      6 C22         -5.6270    -1.4400    -0.4590 c6         1 JEE       0.126300
      7 C26         -6.8840    -0.7480     1.4340 c6         1 JEE       0.126300
      8 C28         -1.1630    -0.0150    -0.3850 ca         1 JEE      -0.092500
      9 C02          5.4200    -2.9330    -0.1190 cc         1 JEE       0.292000
     10 N03          4.1300    -3.2030    -0.3380 na         1 JEE      -0.044200
     11 N04          3.3270    -2.1260    -0.2320 nc         1 JEE      -0.527800
     12 C05          4.1140    -1.1200     0.0600 cd         1 JEE       0.397500
     13 C06          3.5810     0.2350     0.2150 ca         1 JEE      -0.124500
     14 C07          2.4410     0.5950    -0.4890 ca         1 JEE      -0.091000
     15 C08          1.9390     1.8790    -0.3120 ca         1 JEE      -0.054200
     16 C09          2.5490     2.8150     0.5530 ca         1 JEE      -0.083800
     17 C11          4.1980     1.1590     1.0850 ca         1 JEE      -0.113000
     18 C12          1.7720     4.0100     0.4790 cd         1 JEE      -0.242200
     19 N14          0.8600     2.4860    -0.8930 na         1 JEE      -0.086700
     20 C16         -1.2620     1.2490    -0.9560 ca         1 JEE      -0.118300
     21 C18         -3.4770     1.4560    -0.0120 ca         1 JEE      -0.098500
     22 C19         -3.3730     0.1960     0.5740 ca         1 JEE      -0.075300
     23 N21         -5.7280    -0.4600     0.6060 n3         1 JEE      -0.717600
     24 C23         -6.9060    -1.4600    -1.2720 c6         1 JEE       0.153100
     25 O24         -8.0310    -1.7270    -0.4640 os         1 JEE      -0.450000
     26 C25         -8.1360    -0.7830     0.5780 c6         1 JEE       0.153100
     27 C27         -2.2070    -0.5310     0.3720 ca         1 JEE      -0.098500
     28 C29          5.4680    -1.5600     0.1500 cd         1 JEE      -0.226000
     29 C30          6.6410    -0.8270     0.3730 ch         1 JEE       0.375000
     30 N31          7.6230    -0.2430     0.5520 n1         1 JEE      -0.489000
     31 H1           4.1860     3.1210     1.9320 ha         1 JEE       0.118000
     32 H2          -0.0390     4.4070    -0.7300 h4         1 JEE       0.210000
     33 H3          -0.4940     2.5840    -2.4500 h1         1 JEE       0.063700
     34 H4           0.3840     1.0780    -2.3360 h1         1 JEE       0.063700
     35 H5          -2.5400     2.9560    -1.2120 ha         1 JEE       0.115000
     36 H6          -4.2110    -1.3360     1.8110 h1         1 JEE       0.041200
     37 H7          -4.7100     0.2970     2.2340 h1         1 JEE       0.041200
     38 H8          -4.7980    -1.1850    -1.1230 h1         1 JEE       0.041950
     39 H9          -5.4240    -2.4510    -0.0620 h1         1 JEE       0.041950
     40 H10         -6.7800    -1.7040     1.9740 h1         1 JEE       0.041950
     41 H11         -6.9950     0.0360     2.1880 h1         1 JEE       0.041950
     42 H12         -0.2790    -0.6210    -0.5410 ha         1 JEE       0.115000
     43 H13          6.2420    -4.7070    -0.6430 hn         1 JEE       0.479000
     44 H14          7.3470    -3.5200    -0.1930 hn         1 JEE       0.479000
     45 H15          3.7280    -4.1050    -0.5400 hn         1 JEE       0.373000
     46 H16          1.9770    -0.1050    -1.1720 ha         1 JEE       0.122000
     47 H17          5.0720     0.8630     1.6490 ha         1 JEE       0.120000
     48 H18          1.9470     4.9370     1.0010 ha         1 JEE       0.206000
     49 H19         -4.3860     2.0330     0.1110 ha         1 JEE       0.119500
     50 H21         -7.0210    -0.4960    -1.7880 h1         1 JEE       0.050700
     51 H22         -6.8540    -2.2420    -2.0300 h1         1 JEE       0.050700
     52 H23         -8.9980    -1.0610     1.1870 h1         1 JEE       0.050700
     53 H24         -8.3230     0.2210     0.1700 h1         1 JEE       0.050700
     54 H25         -2.1140    -1.5240     0.7980 ha         1 JEE       0.119500
     55 N01          6.4010    -3.8600    -0.1210 nv         1 JEE      -1.076000
@<TRIPOS>BOND
     1     1    16 ar  
     2     1    17 ar  
     3     1    31 1   
     4     2    18 2   
     5     2    19 1   
     6     2    32 1   
     7     3    19 1   
     8     3    20 1   
     9     3    33 1   
    10     3    34 1   
    11     4    20 ar  
    12     4    21 ar  
    13     4    35 1   
    14     5    22 1   
    15     5    23 1   
    16     5    36 1   
    17     5    37 1   
    18     6    23 1   
    19     6    24 1   
    20     6    38 1   
    21     6    39 1   
    22     7    23 1   
    23     7    26 1   
    24     7    40 1   
    25     7    41 1   
    26     8    20 ar  
    27     8    27 ar  
    28     8    42 1   
    29     9    10 1   
    30     9    28 2   
    31     9    55 1   
    32    10    11 1   
    33    10    45 1   
    34    11    12 2   
    35    12    13 1   
    36    12    28 1   
    37    13    14 ar  
    38    13    17 ar  
    39    14    15 ar  
    40    14    46 1   
    41    15    16 ar  
    42    15    19 1   
    43    16    18 1   
    44    17    47 1   
    45    18    48 1   
    46    21    22 ar  
    47    21    49 1   
    48    22    27 ar  
    49    24    25 1   
    50    24    50 1   
    51    24    51 1   
    52    25    26 1   
    53    26    52 1   
    54    26    53 1   
    55    27    54 1   
    56    28    29 1   
    57    29    30 3   
    58    43    55 1   
    59    44    55 1   
@<TRIPOS>SUBSTRUCTURE
     1 JEE         1 TEMP              0 ****  ****    0 ROOT
