@<TRIPOS>MOLECULE
JEE
   55    59     1     0     0
SMALL
No Charge or Current Charge


@<TRIPOS>ATOM
      1 C10          3.5760     2.8190     1.0390 ca         1 JEE      -0.067000
      2 C13          0.8280     4.1160    -1.0660 cc         1 JEE      -0.151100
      3 C15         -0.0390     1.9380    -2.1540 c3         1 JEE       0.126900
      4 C17         -1.6800     1.5560    -0.2260 ca         1 JEE      -0.092500
      5 C20         -3.9650    -1.3850     0.7110 c3         1 JEE       0.213100
      6 C22         -5.8760    -0.7660    -0.7640 c6         1 JEE       0.126300
      7 C26         -6.3010    -1.6210     1.5060 c6         1 JEE       0.126300
      8 C28         -1.3970    -0.1940    -1.8880 ca         1 JEE      -0.092500
      9 C02          4.9390    -2.8280     0.7800 cc         1 JEE       0.292000
     10 N03          3.5780    -3.0760     0.7170 na         1 JEE      -0.044200
     11 N04          2.8190    -1.9250     0.5710 nc         1 JEE      -0.527800
     12 C05          3.7400    -0.9710     0.5640 cd         1 JEE       0.397500
     13 C06          3.3430     0.4460     0.4050 ca         1 JEE      -0.124500
     14 C07          2.2510     0.7840    -0.4370 ca         1 JEE      -0.091000
     15 C08          1.8720     2.1320    -0.5380 ca         1 JEE      -0.054200
     16 C09          2.5150     3.1030     0.1740 ca         1 JEE      -0.083800
     17 C11          3.9820     1.4730     1.1560 ca         1 JEE      -0.113000
     18 C12          1.8570     4.3390    -0.1610 cd         1 JEE      -0.242200
     19 N14          0.8600     2.7240    -1.2880 na         1 JEE      -0.086700
     20 C16         -1.0590     1.0840    -1.4010 ca         1 JEE      -0.118300
     21 C18         -2.6160     0.7570     0.4540 ca         1 JEE      -0.098500
     22 C19         -2.9470    -0.5220    -0.0320 ca         1 JEE      -0.075300
     23 N21         -5.3500    -0.8620     0.6360 n3         1 JEE      -0.717600
     24 C23         -7.3310    -0.2090    -0.7980 c6         1 JEE       0.153100
     25 O24         -8.1950    -1.0050     0.0480 os         1 JEE      -0.450000
     26 C25         -7.7460    -1.0440     1.4240 c6         1 JEE       0.153100
     27 C27         -2.3320    -0.9920    -1.2080 ca         1 JEE      -0.098500
     28 C29          5.0610    -1.4790     0.6760 cd         1 JEE      -0.226000
     29 C30          6.2780    -0.7590     0.6480 ch         1 JEE       0.375000
     30 N31          7.2960    -0.1880     0.6300 n1         1 JEE      -0.489000
     31 H1           4.0620     3.6070     1.6100 ha         1 JEE       0.118000
     32 H2           0.1170     4.7860    -1.5400 h4         1 JEE       0.210000
     33 H3          -0.5780     2.6310    -2.8120 h1         1 JEE       0.063700
     34 H4           0.5790     1.2970    -2.7960 h1         1 JEE       0.063700
     35 H5          -1.4420     2.5420     0.1650 ha         1 JEE       0.115000
     36 H6          -3.9290    -2.4090     0.3120 h1         1 JEE       0.041200
     37 H7          -3.6500    -1.4450     1.7620 h1         1 JEE       0.041200
     38 H8          -5.2390    -0.1080    -1.3730 h1         1 JEE       0.041950
     39 H9          -5.8670    -1.7560    -1.2440 h1         1 JEE       0.041950
     40 H10         -6.3290    -2.6800     1.2070 h1         1 JEE       0.041950
     41 H11         -5.9680    -1.5910     2.5530 h1         1 JEE       0.041950
     42 H12         -0.9320    -0.5730    -2.7960 ha         1 JEE       0.115000
     43 H13          5.6080    -4.7980     0.8160 hn         1 JEE       0.479000
     44 H14          6.8650    -3.5950     0.8140 hn         1 JEE       0.479000
     45 H15          3.1470    -3.9940     0.7640 hn         1 JEE       0.373000
     46 H16          1.7240     0.0170    -1.0000 ha         1 JEE       0.122000
     47 H17          4.7850     1.2300     1.8480 ha         1 JEE       0.120000
     48 H18          2.1220     5.3160     0.2390 ha         1 JEE       0.206000
     49 H19         -3.0900     1.1320     1.3580 ha         1 JEE       0.119500
     50 H21         -7.3410     0.8340    -0.4490 h1         1 JEE       0.050700
     51 H22         -7.7150    -0.2290    -1.8270 h1         1 JEE       0.050700
     52 H23         -8.4330    -1.6700     2.0100 h1         1 JEE       0.050700
     53 H24         -7.7690    -0.0270     1.8430 h1         1 JEE       0.050700
     54 H25         -2.5810    -1.9770    -1.5980 ha         1 JEE       0.119500
     55 N01          5.8730    -3.8170     0.9040 nv         1 JEE      -1.076000
@<TRIPOS>BOND
     1     1    16 ar  
     2     1    17 ar  
     3     1    31 1   
     4     2    18 2   
     5     2    19 1   
     6     2    32 1   
     7     3    19 1   
     8     3    20 1   
     9     3    33 1   
    10     3    34 1   
    11     4    20 ar  
    12     4    21 ar  
    13     4    35 1   
    14     5    22 1   
    15     5    23 1   
    16     5    36 1   
    17     5    37 1   
    18     6    23 1   
    19     6    24 1   
    20     6    38 1   
    21     6    39 1   
    22     7    23 1   
    23     7    26 1   
    24     7    40 1   
    25     7    41 1   
    26     8    20 ar  
    27     8    27 ar  
    28     8    42 1   
    29     9    10 1   
    30     9    28 2   
    31     9    55 1   
    32    10    11 1   
    33    10    45 1   
    34    11    12 2   
    35    12    13 1   
    36    12    28 1   
    37    13    14 ar  
    38    13    17 ar  
    39    14    15 ar  
    40    14    46 1   
    41    15    16 ar  
    42    15    19 1   
    43    16    18 1   
    44    17    47 1   
    45    18    48 1   
    46    21    22 ar  
    47    21    49 1   
    48    22    27 ar  
    49    24    25 1   
    50    24    50 1   
    51    24    51 1   
    52    25    26 1   
    53    26    52 1   
    54    26    53 1   
    55    27    54 1   
    56    28    29 1   
    57    29    30 3   
    58    43    55 1   
    59    44    55 1   
@<TRIPOS>SUBSTRUCTURE
     1 JEE         1 TEMP              0 ****  ****    0 ROOT
