@<TRIPOS>MOLECULE
JEG
   18    18     1     0     0
SMALL
No Charge or Current Charge


@<TRIPOS>ATOM
      1 N01          1.5740     2.1100     0.1620 n8         1 JEG      -0.991200
      2 C02          1.0100     0.7280     0.1500 cy         1 JEG       0.016200
      3 C03          1.8420    -0.6890     0.3040 c          1 JEG       0.734000
      4 O04          2.4000    -1.2210    -0.6510 o          1 JEG      -0.753500
      5 O05          2.0890    -1.1940     1.3950 o          1 JEG      -0.753500
      6 C06          0.0510     0.2680    -1.0360 cy         1 JEG      -0.069400
      7 C07         -1.0820     0.9170    -0.1350 cy         1 JEG      -0.192700
      8 C08         -2.1850    -0.2390    -0.2340 c          1 JEG       0.728000
      9 O09         -2.5550    -0.6910    -1.3100 o          1 JEG      -0.764500
     10 O10         -2.8280    -0.6080     0.7400 o          1 JEG      -0.764500
     11 C11         -0.2290     0.3520     1.0780 cy         1 JEG      -0.069400
     12 H1           2.2200     2.2300    -0.6280 hn         1 JEG       0.368000
     13 H2           0.8250     2.7840    -0.0310 hn         1 JEG       0.368000
     14 H5           0.2220     0.7590    -2.0000 hc         1 JEG       0.035200
     15 H6          -0.0290    -0.8130    -1.2190 hc         1 JEG       0.035200
     16 H7          -1.3630     1.9730    -0.2150 hc         1 JEG       0.005700
     17 H9          -0.3660    -0.7100     1.3190 hc         1 JEG       0.035200
     18 H10         -0.3090     0.9210     2.0110 hc         1 JEG       0.035200
@<TRIPOS>BOND
     1     1     2 1   
     2     1    12 1   
     3     1    13 1   
     4     2     3 1   
     5     2     6 1   
     6     2    11 1   
     7     3     4 1   
     8     3     5 1   
     9     6     7 1   
    10     6    14 1   
    11     6    15 1   
    12     7     8 1   
    13     7    11 1   
    14     7    16 1   
    15     8     9 1   
    16     8    10 1   
    17    11    17 1   
    18    11    18 1   
@<TRIPOS>SUBSTRUCTURE
     1 JEG         1 TEMP              0 ****  ****    0 ROOT
