@<TRIPOS>MOLECULE
JEG
   18    18     1     0     0
SMALL
abcg2


@<TRIPOS>ATOM
      1 N01          1.5670     1.8600     0.1150 n8         1 JEG      -0.991200
      2 C02          0.9940     0.5240     0.1040 cy         1 JEG       0.016200
      3 C03          2.1040    -0.5380     0.1880 c          1 JEG       0.734000
      4 O04          3.2380    -0.2040    -0.2160 o          1 JEG      -0.753500
      5 O05          1.7770    -1.6690     0.6000 o          1 JEG      -0.753500
      6 C06         -0.0270     0.2570    -1.0490 cy         1 JEG      -0.069400
      7 C07         -1.1690     0.6210    -0.0900 cy         1 JEG      -0.192700
      8 C08         -2.4660    -0.1800    -0.0810 c          1 JEG       0.728000
      9 O09         -2.6890    -0.9520    -1.0360 o          1 JEG      -0.764500
     10 O10         -3.2130     0.0140     0.9030 o          1 JEG      -0.764500
     11 C11         -0.1910     0.4180     1.0870 cy         1 JEG      -0.069400
     12 H1           2.3470     1.8750    -0.5300 hn         1 JEG       0.368000
     13 H2           0.8930     2.5310    -0.2360 hn         1 JEG       0.368000
     14 H5           0.1010     0.8630    -1.9500 hc         1 JEG       0.035200
     15 H6          -0.0730    -0.7940    -1.3390 hc         1 JEG       0.035200
     16 H7          -1.4270     1.6830    -0.1790 hc         1 JEG       0.005700
     17 H9          -0.2700    -0.5830     1.5130 hc         1 JEG       0.035200
     18 H10         -0.2100     1.1500     1.8970 hc         1 JEG       0.035200
@<TRIPOS>BOND
     1     1     2 1   
     2     1    12 1   
     3     1    13 1   
     4     2     3 1   
     5     2     6 1   
     6     2    11 1   
     7     3     4 1   
     8     3     5 1   
     9     6     7 1   
    10     6    14 1   
    11     6    15 1   
    12     7     8 1   
    13     7    11 1   
    14     7    16 1   
    15     8     9 1   
    16     8    10 1   
    17    11    17 1   
    18    11    18 1   
@<TRIPOS>SUBSTRUCTURE
     1 JEG         1 TEMP              0 ****  ****    0 ROOT
