@<TRIPOS>MOLECULE
JEH
   65    69     1     0     0
SMALL
bcc


@<TRIPOS>ATOM
      1 C10          3.2170     0.7940    -0.5150 ca         1 JEH      -0.102000
      2 C13          4.7310     2.4130     1.2400 ca         1 JEH      -0.086000
      3 C15          3.2270     4.3160     0.2860 cc         1 JEH      -0.191200
      4 C20         -0.9900     2.7320    -0.5080 ca         1 JEH      -0.109500
      5 C21         -2.0490     2.2120     0.2140 ca         1 JEH      -0.116000
      6 C22         -2.2680     0.8360     0.2680 ca         1 JEH      -0.073300
      7 C26         -6.2890    -0.8820     1.4780 c6         1 JEH       0.128300
      8 C28         -7.1950    -2.6380     0.0730 c3         1 JEH       0.184500
      9 C02          5.3750    -3.2490     0.1870 cc         1 JEH       0.204300
     10 N03          4.0740    -3.2610    -0.1140 na         1 JEH      -0.047600
     11 N04          3.5060    -2.0380    -0.1080 nc         1 JEH      -0.526800
     12 C05          4.4640    -1.2010     0.2010 cd         1 JEH       0.463800
     13 C06          5.6890    -1.9030     0.4060 cd         1 JEH      -0.291300
     14 C07          6.9730    -1.4130     0.6780 ch         1 JEH       0.286800
     15 N08          8.0410    -1.0310     0.9020 n1         1 JEH      -0.400800
     16 C09          4.2150     0.2410     0.2750 ca         1 JEH      -0.125500
     17 C11          2.9860     2.1600    -0.4160 ca         1 JEH      -0.052200
     18 C12          3.7300     2.9910     0.4530 ca         1 JEH      -0.084800
     19 C14          4.9620     1.0570     1.1490 ca         1 JEH      -0.131000
     20 C16          2.2340     4.2380    -0.6460 cd         1 JEH      -0.105100
     21 N17          2.0890     2.9490    -1.0830 na         1 JEH      -0.058400
     22 C18          1.0440     2.4720    -1.9660 c3         1 JEH       0.098600
     23 C19         -0.1230     1.8920    -1.2080 ca         1 JEH      -0.118300
     24 N24         -4.6880     0.8260     0.6120 n3         1 JEH      -0.711600
     25 C25         -5.7890     0.5570     1.5170 c6         1 JEH       0.160300
     26 N27         -6.6860    -1.2650     0.1310 n3         1 JEH      -0.712600
     27 C29         -8.3780    -2.8350     1.0190 c3         1 JEH      -0.091100
     28 C30         -7.6340    -3.0150    -1.3400 c3         1 JEH      -0.091100
     29 C31         -5.5740    -1.0480    -0.7840 c6         1 JEH       0.128300
     30 C32         -5.0730     0.3910    -0.7200 c6         1 JEH       0.160300
     31 C33         -1.4110     0.0020    -0.4360 ca         1 JEH      -0.116000
     32 C34         -0.3490     0.5230    -1.1680 ca         1 JEH      -0.109500
     33 H1           2.6550     0.1680    -1.1950 ha         1 JEH       0.142000
     34 H2           5.3130     3.0200     1.9230 ha         1 JEH       0.135000
     35 H3           3.5620     5.2110     0.7850 ha         1 JEH       0.156000
     36 H4          -0.8370     3.8050    -0.5340 ha         1 JEH       0.131000
     37 H5          -2.7180     2.8800     0.7440 ha         1 JEH       0.136500
     38 H6          -5.5160    -1.5610     1.8800 h1         1 JEH       0.033700
     39 H7          -7.1430    -0.9510     2.1520 h1         1 JEH       0.033700
     40 H8          -6.3990    -3.3440     0.3760 h1         1 JEH       0.015700
     41 H9           5.7230    -5.2420     0.2540 hn         1 JEH       0.422800
     42 H10          7.0260    -4.2800     0.7070 hn         1 JEH       0.422800
     43 H11          3.5080    -4.0700    -0.3190 hn         1 JEH       0.321700
     44 H12          5.7190     0.6130     1.7820 ha         1 JEH       0.137000
     45 H13          1.6080     5.0200    -1.0490 h4         1 JEH       0.158000
     46 H14          0.7240     3.3160    -2.5780 h1         1 JEH       0.063200
     47 H15          1.4690     1.7320    -2.6470 h1         1 JEH       0.063200
     48 H16         -3.3680    -0.8170     1.0430 h1         1 JEH       0.039700
     49 H17         -3.2970     0.5680     2.1140 h1         1 JEH       0.039700
     50 H18         -6.6180     1.2210     1.2500 h1         1 JEH       0.059700
     51 H19         -5.4930     0.8100     2.5380 h1         1 JEH       0.059700
     52 H20         -8.8220    -3.8170     0.8540 hc         1 JEH       0.037867
     53 H21         -8.0990    -2.7880     2.0710 hc         1 JEH       0.037867
     54 H22         -9.1480    -2.0830     0.8360 hc         1 JEH       0.037867
     55 H23         -6.8100    -3.0570    -2.0510 hc         1 JEH       0.037867
     56 H24         -8.0910    -4.0050    -1.3280 hc         1 JEH       0.037867
     57 H25         -8.3760    -2.3080    -1.7170 hc         1 JEH       0.037867
     58 H26         -4.7450    -1.7520    -0.5870 h1         1 JEH       0.033700
     59 H27         -5.8700     1.0530    -1.0740 h1         1 JEH       0.059700
     60 H28         -1.5720    -1.0700    -0.4190 ha         1 JEH       0.136500
     61 H29          0.2980    -0.1500    -1.7190 ha         1 JEH       0.131000
     62 H30         -5.8930    -1.2300    -1.8100 h1         1 JEH       0.033700
     63 H31         -4.2330     0.5100    -1.4070 h1         1 JEH       0.059700
     64 C23         -3.4180     0.2810     1.0650 c3         1 JEH       0.209100
     65 N01          6.1680    -4.3410     0.1830 nv         1 JEH      -0.825200
@<TRIPOS>BOND
     1     1    16 ar  
     2     1    17 ar  
     3     1    33 1   
     4     2    18 ar  
     5     2    19 ar  
     6     2    34 1   
     7     3    18 1   
     8     3    20 2   
     9     3    35 1   
    10     4     5 ar  
    11     4    23 ar  
    12     4    36 1   
    13     5     6 ar  
    14     5    37 1   
    15     6    31 ar  
    16     6    64 1   
    17     7    25 1   
    18     7    26 1   
    19     7    38 1   
    20     7    39 1   
    21     8    26 1   
    22     8    27 1   
    23     8    28 1   
    24     8    40 1   
    25     9    10 1   
    26     9    13 2   
    27     9    65 1   
    28    10    11 1   
    29    10    43 1   
    30    11    12 2   
    31    12    13 1   
    32    12    16 1   
    33    13    14 1   
    34    14    15 3   
    35    16    19 ar  
    36    17    18 ar  
    37    17    21 1   
    38    19    44 1   
    39    20    21 1   
    40    20    45 1   
    41    21    22 1   
    42    22    23 1   
    43    22    46 1   
    44    22    47 1   
    45    23    32 ar  
    46    24    25 1   
    47    24    30 1   
    48    24    64 1   
    49    25    50 1   
    50    25    51 1   
    51    26    29 1   
    52    27    52 1   
    53    27    53 1   
    54    27    54 1   
    55    28    55 1   
    56    28    56 1   
    57    28    57 1   
    58    29    30 1   
    59    29    58 1   
    60    29    62 1   
    61    30    59 1   
    62    30    63 1   
    63    31    32 ar  
    64    31    60 1   
    65    32    61 1   
    66    41    65 1   
    67    42    65 1   
    68    48    64 1   
    69    49    64 1   
@<TRIPOS>SUBSTRUCTURE
     1 JEH         1 TEMP              0 ****  ****    0 ROOT
