@<TRIPOS>MOLECULE
JEH
   65    69     1     0     0
SMALL
No Charge or Current Charge


@<TRIPOS>ATOM
      1 C10          3.0910     0.9190    -0.4570 ca         1 JEH      -0.084000
      2 C13          4.9100     2.7310     0.7460 ca         1 JEH      -0.068000
      3 C15          3.5060     4.4950    -0.4860 cc         1 JEH      -0.241200
      4 C20         -0.5260     2.3060    -0.1050 ca         1 JEH      -0.091500
      5 C21         -1.5110     1.6840     0.6800 ca         1 JEH      -0.098000
      6 C22         -2.0960     0.4730     0.2620 ca         1 JEH      -0.073300
      7 C26         -6.0540    -1.3900     1.5470 c6         1 JEH       0.128300
      8 C28         -7.2460    -2.5310    -0.3510 c3         1 JEH       0.184500
      9 C02          5.0320    -3.0770     0.9630 cc         1 JEH       0.292000
     10 N03          3.6490    -3.0300     0.9850 na         1 JEH      -0.047200
     11 N04          3.1420    -1.7580     0.7690 nc         1 JEH      -0.526800
     12 C05          4.2410    -1.0290     0.6300 cd         1 JEH       0.398500
     13 C06          5.4300    -1.8000     0.7250 cd         1 JEH      -0.226000
     14 C07          6.7660    -1.3660     0.5690 ch         1 JEH       0.376000
     15 N08          7.8770    -1.0210     0.4620 n1         1 JEH      -0.490000
     16 C09          4.1420     0.4220     0.3570 ca         1 JEH      -0.125500
     17 C11          2.9950     2.3040    -0.6690 ca         1 JEH      -0.052200
     18 C12          3.8770     3.1700    -0.0880 ca         1 JEH      -0.084800
     19 C14          5.0320     1.3440     0.9730 ca         1 JEH      -0.113000
     20 C16          2.3900     4.3780    -1.3080 cd         1 JEH      -0.155100
     21 N17          2.0650     3.0070    -1.4260 na         1 JEH      -0.087700
     22 C18          0.9640     2.3850    -2.1860 c3         1 JEH       0.127900
     23 C19         -0.1080     1.7230    -1.3200 ca         1 JEH      -0.118300
     24 N24         -4.4500     0.5510     1.1580 n3         1 JEH      -0.711600
     25 C25         -5.4510    -0.0510     2.0880 c6         1 JEH       0.160300
     26 N27         -6.6680    -1.2550     0.1800 n3         1 JEH      -0.712600
     27 C29         -8.2790    -3.1770     0.6080 c3         1 JEH      -0.091100
     28 C30         -7.8960    -2.3690    -1.7500 c3         1 JEH      -0.091100
     29 C31         -5.6820    -0.6030    -0.7510 c6         1 JEH       0.128300
     30 C32         -5.0910     0.7290    -0.1820 c6         1 JEH       0.160300
     31 C33         -1.6830    -0.1070    -0.9530 ca         1 JEH      -0.098000
     32 C34         -0.6980     0.5150    -1.7390 ca         1 JEH      -0.091500
     33 H1           2.3780     0.2390    -0.9180 ha         1 JEH       0.124000
     34 H2           5.5910     3.4380     1.2140 ha         1 JEH       0.117000
     35 H3           3.9920     5.4270    -0.2050 ha         1 JEH       0.206000
     36 H4          -0.0890     3.2430     0.2340 ha         1 JEH       0.113000
     37 H5          -1.8270     2.1440     1.6130 ha         1 JEH       0.118500
     38 H6          -5.2650    -2.1570     1.5320 h1         1 JEH       0.033700
     39 H7          -6.8040    -1.7200     2.2780 h1         1 JEH       0.033700
     40 H8          -6.4300    -3.2580    -0.4680 h1         1 JEH       0.015700
     41 H9           5.2800    -5.0850     1.4450 hn         1 JEH       0.478000
     42 H10          6.7580    -4.1960     1.2240 hn         1 JEH       0.478000
     43 H11          3.0380    -3.8270     1.1310 hn         1 JEH       0.372000
     44 H12          5.8120     0.9930     1.6440 ha         1 JEH       0.119000
     45 H13          1.8130     5.1510    -1.8060 h4         1 JEH       0.208000
     46 H14          0.4910     3.1580    -2.8040 h1         1 JEH       0.063200
     47 H15          1.3980     1.6430    -2.8670 h1         1 JEH       0.063200
     48 H16         -3.3260    -1.2200     0.7490 h1         1 JEH       0.039700
     49 H17         -2.7680    -0.2950     2.1370 h1         1 JEH       0.039700
     50 H18         -6.2800     0.6550     2.2470 h1         1 JEH       0.059700
     51 H19         -5.0030    -0.2320     3.0760 h1         1 JEH       0.059700
     52 H20         -8.7470    -4.0530     0.1440 hc         1 JEH       0.037867
     53 H21         -7.8060    -3.5260     1.5330 hc         1 JEH       0.037867
     54 H22         -9.0710    -2.4640     0.8660 hc         1 JEH       0.037867
     55 H23         -7.1490    -2.1390    -2.5170 hc         1 JEH       0.037867
     56 H24         -8.3900    -3.2980    -2.0600 hc         1 JEH       0.037867
     57 H25         -8.6470    -1.5700    -1.7400 hc         1 JEH       0.037867
     58 H26         -4.8560    -1.2940    -0.9730 h1         1 JEH       0.033700
     59 H27         -5.9120     1.4580    -0.1040 h1         1 JEH       0.059700
     60 H28         -2.1280    -1.0400    -1.2910 ha         1 JEH       0.118500
     61 H29         -0.3920     0.0530    -2.6750 ha         1 JEH       0.113000
     62 H30         -6.1580    -0.3560    -1.7090 h1         1 JEH       0.033700
     63 H31         -4.3800     1.1470    -0.9090 h1         1 JEH       0.059700
     64 C23         -3.1660    -0.1990     1.1180 c3         1 JEH       0.209100
     65 N01          5.7430    -4.2320     1.1310 nv         1 JEH      -1.074000
@<TRIPOS>BOND
     1     1    16 ar  
     2     1    17 ar  
     3     1    33 1   
     4     2    18 ar  
     5     2    19 ar  
     6     2    34 1   
     7     3    18 1   
     8     3    20 2   
     9     3    35 1   
    10     4     5 ar  
    11     4    23 ar  
    12     4    36 1   
    13     5     6 ar  
    14     5    37 1   
    15     6    31 ar  
    16     6    64 1   
    17     7    25 1   
    18     7    26 1   
    19     7    38 1   
    20     7    39 1   
    21     8    26 1   
    22     8    27 1   
    23     8    28 1   
    24     8    40 1   
    25     9    10 1   
    26     9    13 2   
    27     9    65 1   
    28    10    11 1   
    29    10    43 1   
    30    11    12 2   
    31    12    13 1   
    32    12    16 1   
    33    13    14 1   
    34    14    15 3   
    35    16    19 ar  
    36    17    18 ar  
    37    17    21 1   
    38    19    44 1   
    39    20    21 1   
    40    20    45 1   
    41    21    22 1   
    42    22    23 1   
    43    22    46 1   
    44    22    47 1   
    45    23    32 ar  
    46    24    25 1   
    47    24    30 1   
    48    24    64 1   
    49    25    50 1   
    50    25    51 1   
    51    26    29 1   
    52    27    52 1   
    53    27    53 1   
    54    27    54 1   
    55    28    55 1   
    56    28    56 1   
    57    28    57 1   
    58    29    30 1   
    59    29    58 1   
    60    29    62 1   
    61    30    59 1   
    62    30    63 1   
    63    31    32 ar  
    64    31    60 1   
    65    32    61 1   
    66    41    65 1   
    67    42    65 1   
    68    48    64 1   
    69    49    64 1   
@<TRIPOS>SUBSTRUCTURE
     1 JEH         1 TEMP              0 ****  ****    0 ROOT
