@<TRIPOS>MOLECULE
JEJ
   48    51     1     0     0
SMALL
abcg2


@<TRIPOS>ATOM
      1 C1          16.7950    41.2830     5.7980 ca         1 JEJ      -0.106000
      2 C2          16.8120    41.6140     7.1480 ca         1 JEJ      -0.088000
      3 C3          17.9640    41.4210     7.9010 ca         1 JEJ      -0.114000
      4 O1          22.0250    38.7030     4.9560 os         1 JEJ      -0.088700
      5 C11         21.1790    40.6680     4.3400 cc         1 JEJ      -0.316600
      6 C13         24.3940    41.4980     1.7030 ca         1 JEJ      -0.095800
      7 C14         24.7960    40.5890     0.7260 ca         1 JEJ      -0.085000
      8 C15         25.9060    40.8570    -0.0680 ca         1 JEJ      -0.101500
      9 C16         26.6380    42.0290     0.0970 ca         1 JEJ      -0.062300
     10 C17         26.2360    42.9320     1.0840 ca         1 JEJ      -0.101500
     11 C18         25.1310    42.6750     1.8770 ca         1 JEJ      -0.085000
     12 C19         27.8290    42.3320    -0.7780 c3         1 JEJ       0.204100
     13 C20         29.5180    41.5430     0.7550 c3         1 JEJ       0.147100
     14 C21         30.0610    43.2150    -0.8820 c3         1 JEJ       0.147100
     15 C22         17.9390    40.7670     5.2080 ca         1 JEJ       0.164000
     16 C10         21.1500    41.9140     3.6380 c          1 JEJ       0.605600
     17 C4          19.1040    40.9050     7.3000 ca         1 JEJ      -0.069000
     18 C5          19.1110    40.5770     5.9430 ca         1 JEJ      -0.132500
     19 C6          20.3450    40.0590     5.3250 cc         1 JEJ       0.403500
     20 C7          22.2060    39.7680     4.1600 cd         1 JEJ       0.329800
     21 C8          23.2800    39.9910     3.2930 cd         1 JEJ      -0.406800
     22 C9          23.2550    41.1710     2.5900 cc         1 JEJ       0.176400
     23 N1          20.8270    38.9020     5.6980 nd         1 JEJ      -0.347300
     24 N2          22.2140    42.0680     2.7200 n          1 JEJ      -0.291000
     25 N3          29.0240    42.6800    -0.0110 n3         1 JEJ      -0.716600
     26 CL1         17.8830    40.3170     3.5200 cl         1 JEJ      -0.197000
     27 H1          15.9000    41.4160     5.2060 ha         1 JEJ       0.131000
     28 H2          15.9190    42.0200     7.6070 ha         1 JEJ       0.119000
     29 H3          17.9780    41.6750     8.9530 ha         1 JEJ       0.120000
     30 H4          21.0610    43.3910     1.6030 h1         1 JEJ       0.059700
     31 H5          22.4700    44.1410     2.3620 h1         1 JEJ       0.059700
     32 H6          22.6840    43.0850     0.9490 h1         1 JEJ       0.059700
     33 H7          24.2360    39.6740     0.5830 ha         1 JEJ       0.123500
     34 H8          26.2070    40.1420    -0.8230 ha         1 JEJ       0.126000
     35 H9          26.8090    43.8390     1.2360 ha         1 JEJ       0.126000
     36 H10         24.8430    43.3830     2.6430 ha         1 JEJ       0.123500
     37 H11         27.5900    43.1860    -1.4180 h1         1 JEJ       0.042200
     38 H12         28.0160    41.4740    -1.4450 h1         1 JEJ       0.042200
     39 H13         30.3790    41.8500     1.3510 h1         1 JEJ       0.034200
     40 H14         28.7440    41.1790     1.4300 h1         1 JEJ       0.034200
     41 H15         29.8290    40.7060     0.1050 h1         1 JEJ       0.034200
     42 H16         30.9230    43.5150    -0.2840 h1         1 JEJ       0.034200
     43 H17         30.4040    42.4800    -1.6310 h1         1 JEJ       0.034200
     44 H18         29.6830    44.0900    -1.4120 h1         1 JEJ       0.034200
     45 H19         20.0100    40.7630     7.8740 ha         1 JEJ       0.126000
     46 H20         24.1120    39.3110     3.2060 ha         1 JEJ       0.222000
     47 O2          20.3030    42.7970     3.7640 o          1 JEJ      -0.534000
     48 C12         22.1080    43.2490     1.8520 c3         1 JEJ       0.074300
@<TRIPOS>BOND
     1     1     2 ar  
     2     1    15 ar  
     3     1    27 1   
     4     2     3 ar  
     5     2    28 1   
     6     3    17 ar  
     7     3    29 1   
     8     4    20 1   
     9     4    23 1   
    10     5    16 1   
    11     5    19 1   
    12     5    20 2   
    13     6     7 ar  
    14     6    11 ar  
    15     6    22 1   
    16     7     8 ar  
    17     7    33 1   
    18     8     9 ar  
    19     8    34 1   
    20     9    10 ar  
    21     9    12 1   
    22    10    11 ar  
    23    10    35 1   
    24    11    36 1   
    25    12    25 1   
    26    12    37 1   
    27    12    38 1   
    28    13    25 1   
    29    13    39 1   
    30    13    40 1   
    31    13    41 1   
    32    14    25 1   
    33    14    42 1   
    34    14    43 1   
    35    14    44 1   
    36    15    18 ar  
    37    15    26 1   
    38    16    24 1   
    39    16    47 2   
    40    17    18 ar  
    41    17    45 1   
    42    18    19 1   
    43    19    23 2   
    44    20    21 1   
    45    21    22 2   
    46    21    46 1   
    47    22    24 1   
    48    24    48 1   
    49    30    48 1   
    50    31    48 1   
    51    32    48 1   
@<TRIPOS>SUBSTRUCTURE
     1 JEJ         1 TEMP              0 ****  ****    0 ROOT
