@<TRIPOS>MOLECULE
JEJ
   48    51     1     0     0
SMALL
No Charge or Current Charge


@<TRIPOS>ATOM
      1 C1          16.8640    41.1460     5.4770 ca         1 JEJ      -0.106000
      2 C2          16.5730    41.2560     6.8460 ca         1 JEJ      -0.088000
      3 C3          17.5750    40.9980     7.7910 ca         1 JEJ      -0.114000
      4 O1          22.3990    39.0550     5.4170 os         1 JEJ      -0.088700
      5 C11         21.3420    40.8300     4.5740 cc         1 JEJ      -0.316600
      6 C13         24.4260    41.6780     1.8460 ca         1 JEJ      -0.095800
      7 C14         24.8070    40.7170     0.8890 ca         1 JEJ      -0.085000
      8 C15         25.8840    40.9640     0.0200 ca         1 JEJ      -0.101500
      9 C16         26.6000    42.1740     0.1010 ca         1 JEJ      -0.062300
     10 C17         26.2270    43.1310     1.0630 ca         1 JEJ      -0.101500
     11 C18         25.1500    42.8840     1.9320 ca         1 JEJ      -0.085000
     12 C19         27.7710    42.4480    -0.8410 c3         1 JEJ       0.204100
     13 C20         29.4230    41.1810     0.5020 c3         1 JEJ       0.147100
     14 C21         30.1760    42.9320    -1.0530 c3         1 JEJ       0.147100
     15 C22         18.1610    40.8160     5.0470 ca         1 JEJ       0.164000
     16 C10         21.1670    42.0480     3.7870 c          1 JEJ       0.605600
     17 C4          18.8730    40.6630     7.3680 ca         1 JEJ      -0.069000
     18 C5          19.1990    40.6210     5.9940 ca         1 JEJ      -0.132500
     19 C6          20.5670    40.2590     5.6050 cc         1 JEJ       0.403500
     20 C7          22.4250    40.0550     4.4960 cd         1 JEJ       0.329800
     21 C8          23.4720    40.3140     3.5730 cd         1 JEJ      -0.406800
     22 C9          23.3070    41.4110     2.7540 cc         1 JEJ       0.176400
     23 N1          21.1640    39.2010     6.1530 nd         1 JEJ      -0.347300
     24 N2          22.1910    42.2610     2.8300 n          1 JEJ      -0.291000
     25 N3          29.0910    42.4640    -0.1620 n3         1 JEJ      -0.716600
     26 Cl1         18.3770    40.4660     3.3280 cl         1 JEJ      -0.197000
     27 H1          16.0730    41.2860     4.7450 ha         1 JEJ       0.131000
     28 H2          15.5650    41.5080     7.1720 ha         1 JEJ       0.119000
     29 H3          17.3480    41.0540     8.8540 ha         1 JEJ       0.120000
     30 H4          20.9760    43.5890     1.6820 h1         1 JEJ       0.059700
     31 H5          22.4600    44.3150     2.3630 h1         1 JEJ       0.059700
     32 H6          22.5460    43.2160     0.9540 h1         1 JEJ       0.059700
     33 H7          24.2610    39.7780     0.8140 ha         1 JEJ       0.123500
     34 H8          26.1630    40.2120    -0.7150 ha         1 JEJ       0.126000
     35 H9          26.7790    44.0650     1.1400 ha         1 JEJ       0.126000
     36 H10         24.8830    43.6290     2.6790 ha         1 JEJ       0.123500
     37 H11         27.5900    43.4190    -1.3220 h1         1 JEJ       0.042200
     38 H12         27.7720    41.6960    -1.6430 h1         1 JEJ       0.042200
     39 H13         30.3880    41.2520     1.0220 h1         1 JEJ       0.034200
     40 H14         28.6630    40.9130     1.2470 h1         1 JEJ       0.034200
     41 H15         29.4880    40.3660    -0.2320 h1         1 JEJ       0.034200
     42 H16         31.1240    43.0120    -0.5030 h1         1 JEJ       0.034200
     43 H17         30.3220    42.2370    -1.8910 h1         1 JEJ       0.034200
     44 H18         29.9420    43.9230    -1.4640 h1         1 JEJ       0.034200
     45 H19         19.6390    40.4690     8.1170 ha         1 JEJ       0.126000
     46 H20         24.3540    39.6840     3.5330 ha         1 JEJ       0.222000
     47 O2          20.2490    42.8380     3.9570 o          1 JEJ      -0.534000
     48 C12         22.0360    43.4130     1.9050 c3         1 JEJ       0.074300
@<TRIPOS>BOND
     1     1     2 ar  
     2     1    15 ar  
     3     1    27 1   
     4     2     3 ar  
     5     2    28 1   
     6     3    17 ar  
     7     3    29 1   
     8     4    20 1   
     9     4    23 1   
    10     5    16 1   
    11     5    19 1   
    12     5    20 2   
    13     6     7 ar  
    14     6    11 ar  
    15     6    22 1   
    16     7     8 ar  
    17     7    33 1   
    18     8     9 ar  
    19     8    34 1   
    20     9    10 ar  
    21     9    12 1   
    22    10    11 ar  
    23    10    35 1   
    24    11    36 1   
    25    12    25 1   
    26    12    37 1   
    27    12    38 1   
    28    13    25 1   
    29    13    39 1   
    30    13    40 1   
    31    13    41 1   
    32    14    25 1   
    33    14    42 1   
    34    14    43 1   
    35    14    44 1   
    36    15    18 ar  
    37    15    26 1   
    38    16    24 1   
    39    16    47 2   
    40    17    18 ar  
    41    17    45 1   
    42    18    19 1   
    43    19    23 2   
    44    20    21 1   
    45    21    22 2   
    46    21    46 1   
    47    22    24 1   
    48    24    48 1   
    49    30    48 1   
    50    31    48 1   
    51    32    48 1   
@<TRIPOS>SUBSTRUCTURE
     1 JEJ         1 TEMP              0 ****  ****    0 ROOT
