@<TRIPOS>MOLECULE
JEK
   57    61     1     0     0
SMALL
No Charge or Current Charge


@<TRIPOS>ATOM
      1 C10          3.6220     2.7660     1.1670 ca         1 JEK      -0.069000
      2 C13          0.7890     4.3000    -0.6450 cc         1 JEK      -0.158100
      3 C15         -0.1970     2.2450    -1.8640 c3         1 JEK       0.126900
      4 C17         -1.7140     1.7070     0.1280 ca         1 JEK      -0.092500
      5 C20         -4.0090    -1.2730     0.9220 c3         1 JEK       0.212100
      6 C22         -6.0330    -0.0740     0.1390 c6         1 JEK       0.166300
      7 C24         -8.2720    -1.2830    -0.0660 c6         1 JEK      -0.075400
      8 C26         -6.1860    -2.4250     0.8580 c6         1 JEK       0.166300
      9 C28         -1.5910     0.1270    -1.7130 ca         1 JEK      -0.092500
     10 C02          4.8180    -2.8640     0.3360 cc         1 JEK       0.292000
     11 N03          3.4500    -3.0760     0.3280 na         1 JEK      -0.046200
     12 N04          2.7150    -1.9020     0.3300 nc         1 JEK      -0.523800
     13 C05          3.6590    -0.9700     0.3540 cd         1 JEK       0.397500
     14 C06          3.2910     0.4630     0.3430 ca         1 JEK      -0.124500
     15 C07          2.1600     0.8960    -0.3980 ca         1 JEK      -0.082000
     16 C08          1.8110     2.2560    -0.3570 ca         1 JEK      -0.053200
     17 C09          2.5210     3.1470     0.3960 ca         1 JEK      -0.085800
     18 C11          3.9990     1.4060     1.1410 ca         1 JEK      -0.113000
     19 C12          1.8760     4.4210     0.2110 cd         1 JEK      -0.241200
     20 N14          0.7720     2.9330    -0.9900 na         1 JEK      -0.086700
     21 C16         -1.1870     1.3420    -1.1280 ca         1 JEK      -0.118300
     22 C18         -2.6230     0.8640     0.7910 ca         1 JEK      -0.099000
     23 C19         -3.0210    -0.3530     0.2060 ca         1 JEK      -0.075300
     24 N21         -5.3220    -1.3820     0.2400 n3         1 JEK      -0.719600
     25 C23         -7.3490    -0.2000    -0.6690 c6         1 JEK      -0.074900
     26 C25         -7.5050    -2.6180     0.0690 c6         1 JEK      -0.074900
     27 C27         -2.5000    -0.7150    -1.0500 ca         1 JEK      -0.099000
     28 C29          4.9710    -1.5140     0.3420 cd         1 JEK      -0.227000
     29 C30          6.2020    -0.8210     0.3040 ch         1 JEK       0.377000
     30 N31          7.2290    -0.2660     0.2910 n1         1 JEK      -0.491000
     31 H1           4.1620     3.4890     1.7740 ha         1 JEK       0.117000
     32 H2           0.0690     5.0240    -1.0140 h4         1 JEK       0.208000
     33 H3          -0.7600     3.0050    -2.4190 h1         1 JEK       0.062700
     34 H4           0.3650     1.6560    -2.6000 h1         1 JEK       0.062700
     35 H5          -1.4230     2.6450     0.5960 ha         1 JEK       0.113500
     36 H6          -3.5460    -2.2670     0.9920 h1         1 JEK       0.039200
     37 H7          -4.1510    -0.9180     1.9520 h1         1 JEK       0.039200
     38 H8          -6.2650     0.3100     1.1440 h1         1 JEK       0.030950
     39 H9          -5.3980     0.6760    -0.3540 h1         1 JEK       0.030950
     40 H10         -8.6290    -0.9590     0.9220 hc         1 JEK       0.038700
     41 H11         -9.1610    -1.4180    -0.6960 hc         1 JEK       0.038700
     42 H12         -5.6550    -3.3870     0.8940 h1         1 JEK       0.030950
     43 H13         -6.4270    -2.1510     1.8960 h1         1 JEK       0.030950
     44 H14         -1.2000    -0.1690    -2.6840 ha         1 JEK       0.113500
     45 H15          5.4370    -4.8470     0.4560 hn         1 JEK       0.478500
     46 H16          6.7230    -3.6760     0.4400 hn         1 JEK       0.478500
     47 H17          2.9980    -3.9850     0.3110 hn         1 JEK       0.372000
     48 H18          1.5810     0.1930    -0.9920 ha         1 JEK       0.127000
     49 H19          4.8350     1.0860     1.7590 ha         1 JEK       0.119000
     50 H20          2.1890     5.3530     0.6780 ha         1 JEK       0.205000
     51 H21         -3.0200     1.1600     1.7590 ha         1 JEK       0.120500
     52 H23         -7.8680     0.7680    -0.6880 hc         1 JEK       0.045700
     53 H24         -7.1140    -0.4510    -1.7120 hc         1 JEK       0.045700
     54 H25         -8.1340    -3.3640     0.5730 hc         1 JEK       0.045700
     55 H26         -7.2790    -3.0200    -0.9280 hc         1 JEK       0.045700
     56 H27         -2.8060    -1.6510    -1.5140 ha         1 JEK       0.120500
     57 N01          5.7310    -3.8800     0.3130 nv         1 JEK      -1.075000
@<TRIPOS>BOND
     1     1    17 ar  
     2     1    18 ar  
     3     1    31 1   
     4     2    19 2   
     5     2    20 1   
     6     2    32 1   
     7     3    20 1   
     8     3    21 1   
     9     3    33 1   
    10     3    34 1   
    11     4    21 ar  
    12     4    22 ar  
    13     4    35 1   
    14     5    23 1   
    15     5    24 1   
    16     5    36 1   
    17     5    37 1   
    18     6    24 1   
    19     6    25 1   
    20     6    38 1   
    21     6    39 1   
    22     7    25 1   
    23     7    26 1   
    24     7    40 1   
    25     7    41 1   
    26     8    24 1   
    27     8    26 1   
    28     8    42 1   
    29     8    43 1   
    30     9    21 ar  
    31     9    27 ar  
    32     9    44 1   
    33    10    11 1   
    34    10    28 2   
    35    10    57 1   
    36    11    12 1   
    37    11    47 1   
    38    12    13 2   
    39    13    14 1   
    40    13    28 1   
    41    14    15 ar  
    42    14    18 ar  
    43    15    16 ar  
    44    15    48 1   
    45    16    17 ar  
    46    16    20 1   
    47    17    19 1   
    48    18    49 1   
    49    19    50 1   
    50    22    23 ar  
    51    22    51 1   
    52    23    27 ar  
    53    25    52 1   
    54    25    53 1   
    55    26    54 1   
    56    26    55 1   
    57    27    56 1   
    58    28    29 1   
    59    29    30 3   
    60    45    57 1   
    61    46    57 1   
@<TRIPOS>SUBSTRUCTURE
     1 JEK         1 TEMP              0 ****  ****    0 ROOT
