@<TRIPOS>MOLECULE
JEK
   57    61     1     0     0
SMALL
bcc


@<TRIPOS>ATOM
      1 C10          3.6680     2.4420     1.3030 ca         1 JEK      -0.087000
      2 C13          0.9770     4.2790    -0.2810 cc         1 JEK      -0.108100
      3 C15         -0.2270     2.5510    -1.6390 c3         1 JEK       0.097600
      4 C17         -2.0000     2.4220     0.1430 ca         1 JEK      -0.110500
      5 C20         -4.3070    -0.3490     1.3410 c3         1 JEK       0.212100
      6 C22         -6.0100    -0.3200    -0.3530 c6         1 JEK       0.166300
      7 C24         -7.7270    -2.1400    -0.4770 c6         1 JEK      -0.075400
      8 C26         -5.9870    -2.0490     1.3190 c6         1 JEK       0.166300
      9 C28         -1.5790     0.4700    -1.1730 ca         1 JEK      -0.110500
     10 C02          4.4700    -3.0940    -0.2150 cc         1 JEK       0.204300
     11 N03          3.1510    -3.1510    -0.4150 na         1 JEK      -0.046600
     12 N04          2.5300    -1.9630    -0.2690 nc         1 JEK      -0.523800
     13 C05          3.4700    -1.1020     0.0300 cd         1 JEK       0.462800
     14 C06          3.1640     0.3160     0.2300 ca         1 JEK      -0.124500
     15 C07          2.0860     0.8750    -0.4420 ca         1 JEK      -0.100000
     16 C08          1.8150     2.2220    -0.2360 ca         1 JEK      -0.053200
     17 C09          2.5910     3.0270     0.6290 ca         1 JEK      -0.085800
     18 C11          3.9430     1.1050     1.1010 ca         1 JEK      -0.131000
     19 C12          2.0320     4.3380     0.5830 cd         1 JEK      -0.191200
     20 N14          0.8450     3.0140    -0.7850 na         1 JEK      -0.057400
     21 C16         -1.2880     1.7970    -0.8760 ca         1 JEK      -0.118300
     22 C18         -2.9780     1.7340     0.8440 ca         1 JEK      -0.117000
     23 C19         -3.2680     0.4040     0.5520 ca         1 JEK      -0.075300
     24 N21         -5.1830    -1.1480     0.5100 n3         1 JEK      -0.719600
     25 C23         -6.8700    -1.1680    -1.2770 c6         1 JEK      -0.074900
     26 C25         -6.8430    -2.9600     0.4530 c6         1 JEK      -0.074900
     27 C27         -2.5570    -0.2190    -0.4700 ca         1 JEK      -0.117000
     28 C29          4.7390    -1.7530     0.0840 cd         1 JEK      -0.292300
     29 C30          6.0170    -1.2190     0.2960 ch         1 JEK       0.287800
     30 N31          7.0810    -0.8010     0.4670 n1         1 JEK      -0.401800
     31 H1           4.2770     3.0260     1.9820 ha         1 JEK       0.135000
     32 H2           0.2960     5.0570    -0.5900 h4         1 JEK       0.158000
     33 H3          -0.6540     3.4280    -2.1280 h1         1 JEK       0.062700
     34 H4           0.1900     1.9240    -2.4290 h1         1 JEK       0.062700
     35 H5          -1.7990     3.4580     0.3900 ha         1 JEK       0.131500
     36 H6          -3.7950    -1.0250     2.0340 h1         1 JEK       0.039200
     37 H7          -4.8690     0.3640     1.9710 h1         1 JEK       0.039200
     38 H8          -6.6600     0.3480     0.2430 h1         1 JEK       0.030950
     39 H9          -5.3610     0.3260    -0.9480 h1         1 JEK       0.030950
     40 H10         -8.4570    -1.5790     0.1160 hc         1 JEK       0.038700
     41 H11         -8.2980    -2.7920    -1.1430 hc         1 JEK       0.038700
     42 H12         -5.3140    -2.6480     1.9380 h1         1 JEK       0.030950
     43 H13         -6.6410    -1.4910     2.0130 h1         1 JEK       0.030950
     44 H14         -1.0380    -0.0340    -1.9660 ha         1 JEK       0.131500
     45 H15          4.9160    -5.0650    -0.3320 hn         1 JEK       0.423300
     46 H16          6.2060    -4.0700     0.0880 hn         1 JEK       0.423300
     47 H17          2.6080    -3.9700    -0.6400 hn         1 JEK       0.321700
     48 H18          1.4900     0.2710    -1.1140 ha         1 JEK       0.145000
     49 H19          4.7620     0.6550     1.6460 ha         1 JEK       0.137000
     50 H20          2.3690     5.2130     1.1150 ha         1 JEK       0.155000
     51 H21         -3.5320     2.2430     1.6240 ha         1 JEK       0.138500
     52 H23         -7.4920    -0.5120    -1.8900 hc         1 JEK       0.045700
     53 H24         -6.2200    -1.7230    -1.9600 hc         1 JEK       0.045700
     54 H25         -7.4450    -3.6050     1.0970 hc         1 JEK       0.045700
     55 H26         -6.1910    -3.6130    -0.1350 hc         1 JEK       0.045700
     56 H27         -2.7790    -1.2480    -0.7220 ha         1 JEK       0.138500
     57 N01          5.3100    -4.1390    -0.3660 nv         1 JEK      -0.826200
@<TRIPOS>BOND
     1     1    17 ar  
     2     1    18 ar  
     3     1    31 1   
     4     2    19 2   
     5     2    20 1   
     6     2    32 1   
     7     3    20 1   
     8     3    21 1   
     9     3    33 1   
    10     3    34 1   
    11     4    21 ar  
    12     4    22 ar  
    13     4    35 1   
    14     5    23 1   
    15     5    24 1   
    16     5    36 1   
    17     5    37 1   
    18     6    24 1   
    19     6    25 1   
    20     6    38 1   
    21     6    39 1   
    22     7    25 1   
    23     7    26 1   
    24     7    40 1   
    25     7    41 1   
    26     8    24 1   
    27     8    26 1   
    28     8    42 1   
    29     8    43 1   
    30     9    21 ar  
    31     9    27 ar  
    32     9    44 1   
    33    10    11 1   
    34    10    28 2   
    35    10    57 1   
    36    11    12 1   
    37    11    47 1   
    38    12    13 2   
    39    13    14 1   
    40    13    28 1   
    41    14    15 ar  
    42    14    18 ar  
    43    15    16 ar  
    44    15    48 1   
    45    16    17 ar  
    46    16    20 1   
    47    17    19 1   
    48    18    49 1   
    49    19    50 1   
    50    22    23 ar  
    51    22    51 1   
    52    23    27 ar  
    53    25    52 1   
    54    25    53 1   
    55    26    54 1   
    56    26    55 1   
    57    27    56 1   
    58    28    29 1   
    59    29    30 3   
    60    45    57 1   
    61    46    57 1   
@<TRIPOS>SUBSTRUCTURE
     1 JEK         1 TEMP              0 ****  ****    0 ROOT
