@<TRIPOS>MOLECULE
JEL
   50    55     1     0     0
SMALL
No Charge or Current Charge


@<TRIPOS>ATOM
      1 N1         -16.7540   -64.3940    41.4880 na         1 JEL      -0.227600
      2 N3         -17.6550   -64.2090    36.1120 nu         1 JEL      -0.914100
      3 C4         -16.8790   -64.7900    35.0150 c3         1 JEL       0.259100
      4 C6         -15.5640   -65.1290    41.6180 ca         1 JEL       0.015800
      5 C7         -17.1280   -64.2560    40.1370 ca         1 JEL      -0.110200
      6 C8         -13.9980   -66.2130    40.1120 ca         1 JEL      -0.038000
      7 C10        -17.3970   -64.2770    37.4520 ca         1 JEL       0.566900
      8 C13        -17.5370   -64.4670    33.6800 ca         1 JEL      -0.076300
      9 C15        -17.8010   -62.9890    31.7540 ca         1 JEL       0.126100
     10 C17        -19.1060   -65.0410    31.8970 ca         1 JEL      -0.084000
     11 C22        -16.9870   -61.4990    26.9880 ca         1 JEL       0.046100
     12 C1         -17.5400   -60.4190    27.6880 ca         1 JEL      -0.085000
     13 C11        -16.2780   -64.9370    38.0030 ca         1 JEL      -0.178000
     14 C14        -17.2000   -63.2860    32.9880 ca         1 JEL      -0.127000
     15 C16        -18.7640   -63.8630    31.2120 ca         1 JEL      -0.168000
     16 C18        -18.4930   -65.3420    33.1260 ca         1 JEL      -0.115000
     17 C2         -13.2440   -66.6050    41.2420 ca         1 JEL      -0.156000
     18 C19        -17.6970   -60.5490    29.0860 ca         1 JEL      -0.117000
     19 C25        -16.2330   -62.9070    25.4590 c5         1 JEL       0.372600
     20 C3         -13.6600   -66.2530    42.5510 ca         1 JEL      -0.068000
     21 C20        -17.3070   -61.7390    29.7430 ca         1 JEL       0.102100
     22 C12        -16.7360   -62.8040    29.0080 ca         1 JEL      -0.122000
     23 C5         -16.5990   -62.6450    27.6240 ca         1 JEL       0.065100
     24 C9         -18.2150   -63.6200    39.5160 ca         1 JEL       0.367900
     25 CAA        -15.1720   -65.4650    40.3240 cp         1 JEL      -0.112000
     26 CAB        -14.8400   -65.5020    42.7530 ca         1 JEL      -0.153000
     27 CAC        -16.1550   -64.9160    39.4020 cp         1 JEL      -0.011000
     28 N2         -18.3430   -63.6350    38.1630 nb         1 JEL      -0.717000
     29 O3         -17.4590   -61.8220    31.1090 os         1 JEL      -0.250200
     30 O5         -16.0680   -63.5560    26.7700 os         1 JEL      -0.341100
     31 OP3        -16.7530   -61.5430    25.6520 os         1 JEL      -0.341100
     32 H5         -17.2750   -64.0140    42.2720 hn         1 JEL       0.355000
     33 H8         -18.5030   -63.7000    35.8820 hn         1 JEL       0.484000
     34 H10        -16.8120   -65.8800    35.1350 h1         1 JEL       0.045200
     35 H9         -15.8550   -64.3910    35.0240 h1         1 JEL       0.045200
     36 H1         -13.6820   -66.4810    39.1070 ha         1 JEL       0.116000
     37 H13        -19.8480   -65.7180    31.4800 ha         1 JEL       0.116000
     38 H7         -15.5450   -65.4380    37.3800 ha         1 JEL       0.126000
     39 H11        -16.4690   -62.5990    33.4060 ha         1 JEL       0.128000
     40 H12        -19.2490   -63.6280    30.2680 ha         1 JEL       0.127000
     41 H14        -18.7660   -66.2550    33.6530 ha         1 JEL       0.130000
     42 H2         -12.3340   -67.1830    41.1050 ha         1 JEL       0.114000
     43 H17        -18.1220   -59.7300    29.6620 ha         1 JEL       0.137000
     44 H18        -16.9510   -63.4820    24.8620 h2         1 JEL       0.066700
     45 H19        -15.2660   -62.8640    24.9440 h2         1 JEL       0.066700
     46 H3         -13.0660   -66.5640    43.4080 ha         1 JEL       0.111000
     47 H15        -16.4070   -63.7180    29.4940 ha         1 JEL       0.148000
     48 H6         -18.9820   -63.1010    40.0900 h4         1 JEL       0.019100
     49 H4         -15.1690   -65.2250    43.7520 ha         1 JEL       0.116000
     50 H16        -17.8370   -59.5110    27.1700 ha         1 JEL       0.138000
@<TRIPOS>BOND
     1     1     4 1   
     2     1     5 1   
     3     1    32 1   
     4     2     3 1   
     5     2     7 1   
     6     2    33 1   
     7     3     8 1   
     8     3    34 1   
     9     3    35 1   
    10     4    25 ar  
    11     4    26 ar  
    12     5    24 ar  
    13     5    27 ar  
    14     6    17 ar  
    15     6    25 ar  
    16     6    36 1   
    17     7    13 ar  
    18     7    28 ar  
    19     8    14 ar  
    20     8    16 ar  
    21     9    14 ar  
    22     9    15 ar  
    23     9    29 1   
    24    10    15 ar  
    25    10    16 ar  
    26    10    37 1   
    27    11    12 ar  
    28    11    23 ar  
    29    11    31 1   
    30    12    18 ar  
    31    12    50 1   
    32    13    27 ar  
    33    13    38 1   
    34    14    39 1   
    35    15    40 1   
    36    16    41 1   
    37    17    20 ar  
    38    17    42 1   
    39    18    21 ar  
    40    18    43 1   
    41    19    30 1   
    42    19    31 1   
    43    19    44 1   
    44    19    45 1   
    45    20    26 ar  
    46    20    46 1   
    47    21    22 ar  
    48    21    29 1   
    49    22    23 ar  
    50    22    47 1   
    51    23    30 1   
    52    24    28 ar  
    53    24    48 1   
    54    25    27 1   
    55    26    49 1   
@<TRIPOS>SUBSTRUCTURE
     1 JEL         1 TEMP              0 ****  ****    0 ROOT
