@<TRIPOS>MOLECULE
JEL
   50    55     1     0     0
SMALL
bcc


@<TRIPOS>ATOM
      1 N1         -17.0220   -65.0210    41.5280 na         1 JEL      -0.177300
      2 N3         -17.8200   -63.9410    36.2390 nu         1 JEL      -0.858900
      3 C4         -16.7690   -63.9440    35.2520 c3         1 JEL       0.259100
      4 C6         -15.7600   -65.5440    41.5470 ca         1 JEL       0.015800
      5 C7         -17.3470   -64.6850    40.2340 ca         1 JEL      -0.175500
      6 C8         -13.9610   -66.0460    39.9920 ca         1 JEL      -0.056000
      7 C10        -17.5710   -64.1850    37.5710 ca         1 JEL       0.632200
      8 C13        -17.3420   -63.8060    33.8660 ca         1 JEL      -0.076300
      9 C15        -17.3440   -62.7390    31.7030 ca         1 JEL       0.126100
     10 C17        -18.8610   -64.5340    32.1500 ca         1 JEL      -0.102000
     11 C22        -17.2140   -61.8590    26.8480 ca         1 JEL       0.046100
     12 C1         -17.7980   -60.8260    27.5330 ca         1 JEL      -0.103000
     13 C11        -16.3730   -64.7400    38.0270 ca         1 JEL      -0.261300
     14 C14        -16.8390   -62.8500    32.9960 ca         1 JEL      -0.145000
     15 C16        -18.3640   -63.5780    31.2720 ca         1 JEL      -0.186000
     16 C18        -18.3600   -64.6560    33.4350 ca         1 JEL      -0.133000
     17 C2         -13.2170   -66.5170    41.0570 ca         1 JEL      -0.174000
     18 C19        -17.6630   -60.8260    28.9290 ca         1 JEL      -0.135000
     19 C25        -16.6060   -63.3750    25.3450 c5         1 JEL       0.326200
     20 C3         -13.7440   -66.5010    42.3580 ca         1 JEL      -0.086000
     21 C20        -16.9510   -61.8230    29.5670 ca         1 JEL       0.102100
     22 C12        -16.3430   -62.8710    28.8620 ca         1 JEL      -0.140000
     23 C5         -16.5040   -62.8570    27.5000 ca         1 JEL       0.065100
     24 C9         -18.4860   -64.1130    39.6920 ca         1 JEL       0.433200
     25 CAA        -15.2440   -65.5530    40.2320 cp         1 JEL      -0.112000
     26 CAB        -15.0120   -66.0190    42.6230 ca         1 JEL      -0.171000
     27 CAC        -16.2700   -65.0000    39.3880 cp         1 JEL      -0.011000
     28 N2         -18.5840   -63.8770    38.3950 nb         1 JEL      -0.717000
     29 O3         -16.8040   -61.7550    30.9300 os         1 JEL      -0.250200
     30 O5         -16.0170   -63.7310    26.5910 os         1 JEL      -0.317900
     31 OP3        -17.1830   -62.0880    25.5120 os         1 JEL      -0.317900
     32 H5         -17.6140   -64.8980    42.3330 hn         1 JEL       0.304700
     33 H8         -18.5440   -63.2540    36.0900 hn         1 JEL       0.428800
     34 H10        -16.2330   -64.8960    35.3100 h1         1 JEL       0.045200
     35 H9         -16.0220   -63.1580    35.4270 h1         1 JEL       0.045200
     36 H1         -13.5560   -66.0570    38.9880 ha         1 JEL       0.134000
     37 H13        -19.6540   -65.1900    31.8170 ha         1 JEL       0.134000
     38 H7         -15.5510   -64.9570    37.3590 ha         1 JEL       0.144000
     39 H11        -16.0490   -62.1820    33.3180 ha         1 JEL       0.146000
     40 H12        -18.7750   -63.4960    30.2750 ha         1 JEL       0.145000
     41 H14        -18.7590   -65.4080    34.1030 ha         1 JEL       0.148000
     42 H2         -12.2200   -66.9030    40.8920 ha         1 JEL       0.132000
     43 H17        -18.1180   -60.0360    29.5120 ha         1 JEL       0.155000
     44 H18        -17.3820   -64.1020    25.0830 h2         1 JEL       0.066700
     45 H19        -15.8380   -63.3390    24.5720 h2         1 JEL       0.066700
     46 H3         -13.1430   -66.8770    43.1750 ha         1 JEL       0.129000
     47 H15        -15.7780   -63.6450    29.3660 ha         1 JEL       0.166000
     48 H6         -19.3350   -63.8390    40.3110 h4         1 JEL       0.019100
     49 H4         -15.4090   -66.0110    43.6300 ha         1 JEL       0.134000
     50 H16        -18.3470   -60.0430    27.0280 ha         1 JEL       0.156000
@<TRIPOS>BOND
     1     1     4 1   
     2     1     5 1   
     3     1    32 1   
     4     2     3 1   
     5     2     7 1   
     6     2    33 1   
     7     3     8 1   
     8     3    34 1   
     9     3    35 1   
    10     4    25 ar  
    11     4    26 ar  
    12     5    24 ar  
    13     5    27 ar  
    14     6    17 ar  
    15     6    25 ar  
    16     6    36 1   
    17     7    13 ar  
    18     7    28 ar  
    19     8    14 ar  
    20     8    16 ar  
    21     9    14 ar  
    22     9    15 ar  
    23     9    29 1   
    24    10    15 ar  
    25    10    16 ar  
    26    10    37 1   
    27    11    12 ar  
    28    11    23 ar  
    29    11    31 1   
    30    12    18 ar  
    31    12    50 1   
    32    13    27 ar  
    33    13    38 1   
    34    14    39 1   
    35    15    40 1   
    36    16    41 1   
    37    17    20 ar  
    38    17    42 1   
    39    18    21 ar  
    40    18    43 1   
    41    19    30 1   
    42    19    31 1   
    43    19    44 1   
    44    19    45 1   
    45    20    26 ar  
    46    20    46 1   
    47    21    22 ar  
    48    21    29 1   
    49    22    23 ar  
    50    22    47 1   
    51    23    30 1   
    52    24    28 ar  
    53    24    48 1   
    54    25    27 1   
    55    26    49 1   
@<TRIPOS>SUBSTRUCTURE
     1 JEL         1 TEMP              0 ****  ****    0 ROOT
