@<TRIPOS>MOLECULE
JEN
   41    43     1     0     0
SMALL
bcc


@<TRIPOS>ATOM
      1 C1           0.8210     0.7040     6.9780 c3         1 JEN       0.134700
      2 O2          -0.3050     0.1450     6.3170 os         1 JEN      -0.437100
      3 C3          -0.2720     0.0730     4.9840 ca         1 JEN       0.559600
      4 N4           0.7690     0.5010     4.3300 nb         1 JEN      -0.383000
      5 N5           0.8000     0.4520     3.0030 nb         1 JEN      -0.365000
      6 C6          -0.2030    -0.0570     2.3190 ca         1 JEN       0.572200
      7 C7          -1.3570    -0.5530     2.9820 ca         1 JEN      -0.210300
      8 C8          -1.3950    -0.4820     4.3370 ca         1 JEN      -0.192300
      9 N9          -0.0720    -0.1460     0.9490 nh         1 JEN      -0.754300
     10 C10          1.1530     0.3490     0.3510 c6         1 JEN       0.199300
     11 C11          1.3370    -0.2180    -1.0450 c6         1 JEN       0.189300
     12 N12          0.1860     0.0600    -1.8770 nh         1 JEN      -0.648000
     13 C13         -1.0320    -0.4570    -1.2740 c6         1 JEN       0.189300
     14 C14         -1.2330     0.1160     0.1130 c6         1 JEN       0.199300
     15 C15          0.3250    -0.0830    -3.2600 ca         1 JEN       0.153600
     16 C16         -0.7150     0.3210    -4.1100 ca         1 JEN      -0.168000
     17 C17         -0.6170     0.2330    -5.4910 ca         1 JEN      -0.049300
     18 C18          0.5600    -0.2610    -6.0560 ca         1 JEN      -0.159000
     19 C19          1.5990    -0.6590    -5.2320 ca         1 JEN      -0.098000
     20 C20          1.4910    -0.5840    -3.8500 ca         1 JEN      -0.189000
     21 C21         -1.7680     0.6530    -6.3600 c3         1 JEN      -0.047800
     22 H11          0.9930     1.7390     6.6790 h1         1 JEN       0.048367
     23 H12          0.5920     0.6680     8.0390 h1         1 JEN       0.048367
     24 H13          1.7290     0.1300     6.7850 h1         1 JEN       0.048367
     25 H7          -2.1780    -0.9970     2.4390 ha         1 JEN       0.150000
     26 H8          -2.2400    -0.8500     4.9030 ha         1 JEN       0.160000
     27 H101         1.1600     1.4470     0.3100 h1         1 JEN       0.054450
     28 H102         2.0030     0.0440     0.9570 h1         1 JEN       0.054450
     29 H111         2.2220     0.2550    -1.4710 h1         1 JEN       0.046700
     30 H112         1.5410    -1.2970    -0.9740 h1         1 JEN       0.046700
     31 H131        -1.8990    -0.1860    -1.8720 h1         1 JEN       0.046700
     32 H132        -1.0030    -1.5550    -1.2160 h1         1 JEN       0.046700
     33 H141        -2.1250    -0.3430     0.5340 h1         1 JEN       0.054450
     34 H142        -1.4200     1.1960     0.0390 h1         1 JEN       0.054450
     35 H16         -1.6190     0.7410    -3.6860 ha         1 JEN       0.129000
     36 H18          0.6610    -0.3270    -7.1330 ha         1 JEN       0.130000
     37 H19          2.5120    -1.0460    -5.6670 ha         1 JEN       0.128000
     38 H20          2.3210    -0.9260    -3.2480 ha         1 JEN       0.131000
     39 H211        -2.4470    -0.1840    -6.5390 hc         1 JEN       0.041700
     40 H212        -2.3530     1.4480    -5.8970 hc         1 JEN       0.041700
     41 H213        -1.4280     1.0070    -7.3320 hc         1 JEN       0.041700
@<TRIPOS>BOND
     1     1     2 1   
     2     1    22 1   
     3     1    23 1   
     4     1    24 1   
     5     2     3 1   
     6     3     4 ar  
     7     3     8 ar  
     8     4     5 ar  
     9     5     6 ar  
    10     6     7 ar  
    11     6     9 1   
    12     7     8 ar  
    13     7    25 1   
    14     8    26 1   
    15     9    10 1   
    16     9    14 1   
    17    10    11 1   
    18    10    27 1   
    19    10    28 1   
    20    11    12 1   
    21    11    29 1   
    22    11    30 1   
    23    12    13 1   
    24    12    15 1   
    25    13    14 1   
    26    13    31 1   
    27    13    32 1   
    28    14    33 1   
    29    14    34 1   
    30    15    16 ar  
    31    15    20 ar  
    32    16    17 ar  
    33    16    35 1   
    34    17    18 ar  
    35    17    21 1   
    36    18    19 ar  
    37    18    36 1   
    38    19    20 ar  
    39    19    37 1   
    40    20    38 1   
    41    21    39 1   
    42    21    40 1   
    43    21    41 1   
@<TRIPOS>SUBSTRUCTURE
     1 JEN         1 TEMP              0 ****  ****    0 ROOT
