@<TRIPOS>MOLECULE
JEN
   41    43     1     0     0
SMALL
No Charge or Current Charge


@<TRIPOS>ATOM
      1 C1           0.6210     1.0210     7.2430 c3         1 JEN       0.157900
      2 O2          -0.3290     0.2130     6.5210 os         1 JEN      -0.460300
      3 C3          -0.2710     0.1050     5.1470 ca         1 JEN       0.494300
      4 N4           0.6880     0.7530     4.4310 nb         1 JEN      -0.383000
      5 N5           0.7410     0.6440     3.0810 nb         1 JEN      -0.365000
      6 C6          -0.1600    -0.1120     2.3980 ca         1 JEN       0.506900
      7 C7          -1.1690    -0.8140     3.0910 ca         1 JEN      -0.127000
      8 C8          -1.2240    -0.6990     4.4970 ca         1 JEN      -0.109000
      9 N9          -0.0240    -0.1750     0.9890 nh         1 JEN      -0.754300
     10 C10          1.2150     0.3280     0.3080 c6         1 JEN       0.199300
     11 C11          1.4230    -0.2810    -1.1170 c6         1 JEN       0.189300
     12 N12          0.2080    -0.1660    -1.9850 nh         1 JEN      -0.786400
     13 C13         -1.0240    -0.6810    -1.3070 c6         1 JEN       0.189300
     14 C14         -1.2370    -0.0640     0.1140 c6         1 JEN       0.199300
     15 C15          0.3030    -0.2050    -3.3970 ca         1 JEN       0.292000
     16 C16         -0.6850     0.4200    -4.1820 ca         1 JEN      -0.150000
     17 C17         -0.6150     0.3990    -5.5870 ca         1 JEN      -0.049300
     18 C18          0.4560    -0.2600    -6.2160 ca         1 JEN      -0.141000
     19 C19          1.4490    -0.8850    -5.4460 ca         1 JEN      -0.080000
     20 C20          1.3730    -0.8560    -4.0430 ca         1 JEN      -0.171000
     21 C21         -1.6930     1.0790    -6.4180 c3         1 JEN      -0.047800
     22 H11          0.5660     2.0700     6.9240 h1         1 JEN       0.048367
     23 H12          0.4150     0.9830     8.3200 h1         1 JEN       0.048367
     24 H13          1.6460     0.6610     7.0810 h1         1 JEN       0.048367
     25 H7          -1.8770    -1.4430     2.5630 ha         1 JEN       0.132000
     26 H8          -1.9810    -1.2210     5.0750 ha         1 JEN       0.142000
     27 H101         1.1670     1.4230     0.2160 h1         1 JEN       0.054450
     28 H102         2.1090     0.0900     0.9030 h1         1 JEN       0.054450
     29 H111         2.2750     0.2310    -1.5870 h1         1 JEN       0.046700
     30 H112         1.6980    -1.3400    -1.0070 h1         1 JEN       0.046700
     31 H131        -1.9190    -0.4720    -1.9090 h1         1 JEN       0.046700
     32 H132        -0.9550    -1.7740    -1.2050 h1         1 JEN       0.046700
     33 H141        -2.1050    -0.5600     0.5680 h1         1 JEN       0.054450
     34 H142        -1.5030     0.9970    -0.0060 h1         1 JEN       0.054450
     35 H16         -1.5080     0.9350    -3.6950 ha         1 JEN       0.111000
     36 H18          0.5210    -0.2880    -7.3010 ha         1 JEN       0.112000
     37 H19          2.2760    -1.3950    -5.9360 ha         1 JEN       0.110000
     38 H20          2.1450    -1.3550    -3.4650 ha         1 JEN       0.113000
     39 H211        -2.5250     0.3920    -6.6140 hc         1 JEN       0.041700
     40 H212        -2.0980     1.9590    -5.9040 hc         1 JEN       0.041700
     41 H213        -1.3000     1.4150    -7.3860 hc         1 JEN       0.041700
@<TRIPOS>BOND
     1     1     2 1   
     2     1    22 1   
     3     1    23 1   
     4     1    24 1   
     5     2     3 1   
     6     3     4 ar  
     7     3     8 ar  
     8     4     5 ar  
     9     5     6 ar  
    10     6     7 ar  
    11     6     9 1   
    12     7     8 ar  
    13     7    25 1   
    14     8    26 1   
    15     9    10 1   
    16     9    14 1   
    17    10    11 1   
    18    10    27 1   
    19    10    28 1   
    20    11    12 1   
    21    11    29 1   
    22    11    30 1   
    23    12    13 1   
    24    12    15 1   
    25    13    14 1   
    26    13    31 1   
    27    13    32 1   
    28    14    33 1   
    29    14    34 1   
    30    15    16 ar  
    31    15    20 ar  
    32    16    17 ar  
    33    16    35 1   
    34    17    18 ar  
    35    17    21 1   
    36    18    19 ar  
    37    18    36 1   
    38    19    20 ar  
    39    19    37 1   
    40    20    38 1   
    41    21    39 1   
    42    21    40 1   
    43    21    41 1   
@<TRIPOS>SUBSTRUCTURE
     1 JEN         1 TEMP              0 ****  ****    0 ROOT
