@<TRIPOS>MOLECULE
JEO
   58    61     1     0     0
SMALL
No Charge or Current Charge


@<TRIPOS>ATOM
      1 CAB          1.0380   -18.5420    53.4870 c          1 JEO       0.576100
      2 CAC          2.1410   -17.6370    52.9040 c5         1 JEO      -0.189400
      3 CAD          2.7340   -18.3930    51.6630 c5         1 JEO      -0.066400
      4 CAE          2.5620   -20.5380    53.8540 c3         1 JEO      -0.078100
      5 CAF          1.3960   -19.9550    52.9820 c5         1 JEO      -0.155000
      6 CAG          1.7590   -19.5990    51.5090 c5         1 JEO      -0.062700
      7 CAH          0.2250   -20.9800    52.9640 c6         1 JEO      -0.052400
      8 CAI          2.1980   -20.8290    50.6690 c6         1 JEO      -0.034700
      9 CAJ          2.6190   -20.4120    49.2330 c6         1 JEO      -0.179400
     10 CAK          2.8590   -21.6260    48.3280 c          1 JEO       0.576100
     11 CAM          2.5910   -23.9560    50.3510 c3         1 JEO      -0.090100
     12 CAN          0.5740   -22.2410    52.1170 c6         1 JEO      -0.071400
     13 CAO          1.0300   -21.8880    50.6540 c6         1 JEO      -0.051700
     14 CAP          1.3820   -23.1520    49.7590 c6         1 JEO      -0.029000
     15 CAQ          1.7460   -22.6950    48.2960 c6         1 JEO      -0.158700
     16 CAR          0.4790   -22.1380    47.5450 c6         1 JEO      -0.132700
     17 CAS          0.1620   -24.1610    49.6410 c6         1 JEO      -0.067400
     18 CAT         -1.0960   -23.6320    48.8680 c6         1 JEO      -0.117700
     19 CAU         -0.6920   -23.1340    47.4910 c2         1 JEO       0.376300
     20 CAX         -1.6400   -23.4610    44.0900 c3         1 JEO       0.165600
     21 CAY         -3.0450   -22.7890    44.1010 c3         1 JEO       0.119800
     22 NAV         -1.3230   -23.5310    46.4310 n2         1 JEO      -0.329700
     23 NAZ         -3.8740   -23.1330    42.9150 n8         1 JEO      -1.003200
     24 OAA         -0.0350   -18.1860    53.9580 o          1 JEO      -0.512100
     25 OAL          3.9070   -21.7680    47.7110 o          1 JEO      -0.517100
     26 OAW         -0.8630   -22.9790    45.2100 os         1 JEO      -0.330000
     27 H1           2.9300   -17.5380    53.6570 hc         1 JEO       0.073700
     28 H2           1.7420   -16.6410    52.6870 hc         1 JEO       0.073700
     29 H3           3.7630   -18.7250    51.8470 hc         1 JEO       0.051700
     30 H4           2.7560   -17.7630    50.7660 hc         1 JEO       0.051700
     31 H5           2.2160   -20.7290    54.8770 hc         1 JEO       0.042033
     32 H6           2.9440   -21.4860    53.4620 hc         1 JEO       0.042033
     33 H7           3.4200   -19.8620    53.9300 hc         1 JEO       0.042033
     34 H8           0.8590   -19.2320    50.9960 hc         1 JEO       0.046700
     35 H9          -0.6720   -20.5070    52.5380 hc         1 JEO       0.052200
     36 H10         -0.0450   -21.2750    53.9870 hc         1 JEO       0.052200
     37 H11          3.0770   -21.2710    51.1530 hc         1 JEO       0.058700
     38 H12          3.5020   -19.7600    49.2280 hc         1 JEO       0.067700
     39 H13          1.7670   -19.8650    48.8120 hc         1 JEO       0.067700
     40 H14          2.3630   -24.3720    51.3380 hc         1 JEO       0.040367
     41 H15          2.8520   -24.8050    49.7080 hc         1 JEO       0.040367
     42 H16          3.4990   -23.3500    50.4480 hc         1 JEO       0.040367
     43 H17         -0.3200   -22.8750    52.0910 hc         1 JEO       0.044200
     44 H18          1.3420   -22.8290    52.6330 hc         1 JEO       0.044200
     45 H19          0.1630   -21.3900    50.2040 hc         1 JEO       0.045700
     46 H20          2.1330   -23.5500    47.7230 hc         1 JEO       0.080700
     47 H21          0.7890   -21.8410    46.5350 hc         1 JEO       0.068200
     48 H22          0.1110   -21.2130    48.0020 hc         1 JEO       0.068200
     49 H23         -0.1420   -24.5250    50.6310 hc         1 JEO       0.050700
     50 H24          0.5070   -25.0630    49.1150 hc         1 JEO       0.050700
     51 H25         -1.5740   -22.8170    49.4280 hc         1 JEO       0.063200
     52 H26         -1.8450   -24.4310    48.7820 hc         1 JEO       0.063200
     53 H27         -1.7430   -24.5540    44.1200 h1         1 JEO       0.060700
     54 H28         -1.1330   -23.1990    43.1520 h1         1 JEO       0.060700
     55 H29         -2.9220   -21.6980    44.1360 h1         1 JEO       0.038700
     56 H30         -3.5910   -23.1010    45.0020 h1         1 JEO       0.038700
     57 H31         -4.7690   -22.6300    42.9720 hn         1 JEO       0.395000
     58 H32         -3.4370   -22.7430    42.0700 hn         1 JEO       0.395000
@<TRIPOS>BOND
     1     1     2 1   
     2     1     5 1   
     3     1    24 2   
     4     2     3 1   
     5     2    27 1   
     6     2    28 1   
     7     3     6 1   
     8     3    29 1   
     9     3    30 1   
    10     4     5 1   
    11     4    31 1   
    12     4    32 1   
    13     4    33 1   
    14     5     6 1   
    15     5     7 1   
    16     6     8 1   
    17     6    34 1   
    18     7    12 1   
    19     7    35 1   
    20     7    36 1   
    21     8     9 1   
    22     8    13 1   
    23     8    37 1   
    24     9    10 1   
    25     9    38 1   
    26     9    39 1   
    27    10    15 1   
    28    10    25 2   
    29    11    14 1   
    30    11    40 1   
    31    11    41 1   
    32    11    42 1   
    33    12    13 1   
    34    12    43 1   
    35    12    44 1   
    36    13    14 1   
    37    13    45 1   
    38    14    15 1   
    39    14    17 1   
    40    15    16 1   
    41    15    46 1   
    42    16    19 1   
    43    16    47 1   
    44    16    48 1   
    45    17    18 1   
    46    17    49 1   
    47    17    50 1   
    48    18    19 1   
    49    18    51 1   
    50    18    52 1   
    51    19    22 2   
    52    20    21 1   
    53    20    26 1   
    54    20    53 1   
    55    20    54 1   
    56    21    23 1   
    57    21    55 1   
    58    21    56 1   
    59    22    26 1   
    60    23    57 1   
    61    23    58 1   
@<TRIPOS>SUBSTRUCTURE
     1 JEO         1 TEMP              0 ****  ****    0 ROOT
