@<TRIPOS>MOLECULE
JEO
   58    61     1     0     0
SMALL
abcg2


@<TRIPOS>ATOM
      1 CAB          1.0630   -18.6460    53.4580 c          1 JEO       0.576100
      2 CAC          1.9490   -17.6470    52.7190 c5         1 JEO      -0.189400
      3 CAD          2.6540   -18.4500    51.6080 c5         1 JEO      -0.066400
      4 CAE          2.4720   -20.6050    53.7340 c3         1 JEO      -0.078100
      5 CAF          1.3170   -20.0280    52.8810 c5         1 JEO      -0.155000
      6 CAG          1.7330   -19.6650    51.4420 c5         1 JEO      -0.062700
      7 CAH          0.1360   -20.9890    52.8350 c6         1 JEO      -0.052400
      8 CAI          2.1850   -20.8800    50.6480 c6         1 JEO      -0.034700
      9 CAJ          2.6350   -20.4800    49.2330 c6         1 JEO      -0.179400
     10 CAK          2.8740   -21.6700    48.3440 c          1 JEO       0.576100
     11 CAM          2.6000   -23.9050    50.3710 c3         1 JEO      -0.090100
     12 CAN          0.4950   -22.2360    52.0120 c6         1 JEO      -0.071400
     13 CAO          1.0250   -21.9040    50.6050 c6         1 JEO      -0.051700
     14 CAP          1.4010   -23.1580    49.7670 c6         1 JEO      -0.029000
     15 CAQ          1.7800   -22.7150    48.3240 c6         1 JEO      -0.158700
     16 CAR          0.5820   -22.1760    47.4990 c6         1 JEO      -0.132700
     17 CAS          0.2400   -24.1630    49.6490 c6         1 JEO      -0.067400
     18 CAT         -0.9800   -23.6180    48.9000 c6         1 JEO      -0.117700
     19 CAU         -0.5770   -23.1260    47.5420 c2         1 JEO       0.376300
     20 CAX         -1.6920   -23.4390    44.2740 c3         1 JEO       0.165600
     21 CAY         -2.9450   -22.5760    44.2820 c3         1 JEO       0.119800
     22 NAV         -1.2390   -23.5580    46.5410 n2         1 JEO      -0.329700
     23 NAZ         -3.8150   -22.9600    43.1650 n8         1 JEO      -1.003200
     24 OAA          0.2900   -18.3700    54.3510 o          1 JEO      -0.512100
     25 OAL          3.8850   -21.7890    47.6730 o          1 JEO      -0.517100
     26 OAW         -0.7760   -23.0640    45.3040 os         1 JEO      -0.330000
     27 H1           2.6240   -17.1520    53.4200 hc         1 JEO       0.073700
     28 H2           1.2960   -16.8730    52.3060 hc         1 JEO       0.073700
     29 H3           3.6550   -18.7560    51.9180 hc         1 JEO       0.051700
     30 H4           2.7550   -17.8760    50.6880 hc         1 JEO       0.051700
     31 H5           2.1040   -20.8050    54.7420 hc         1 JEO       0.042033
     32 H6           2.8470   -21.5380    53.3180 hc         1 JEO       0.042033
     33 H7           3.3130   -19.9160    53.8140 hc         1 JEO       0.042033
     34 H8           0.8210   -19.2940    50.9520 hc         1 JEO       0.046700
     35 H9          -0.7160   -20.4820    52.3730 hc         1 JEO       0.052200
     36 H10         -0.1690   -21.2830    53.8420 hc         1 JEO       0.052200
     37 H11          3.0430   -21.3270    51.1540 hc         1 JEO       0.058700
     38 H12          3.5400   -19.8740    49.2580 hc         1 JEO       0.067700
     39 H13          1.8450   -19.8770    48.7710 hc         1 JEO       0.067700
     40 H14          2.3680   -24.2750    51.3700 hc         1 JEO       0.040367
     41 H15          2.8520   -24.7660    49.7480 hc         1 JEO       0.040367
     42 H16          3.4910   -23.2820    50.4450 hc         1 JEO       0.040367
     43 H17         -0.3960   -22.8570    51.9240 hc         1 JEO       0.044200
     44 H18          1.2310   -22.8310    52.5570 hc         1 JEO       0.044200
     45 H19          0.2050   -21.3950    50.0870 hc         1 JEO       0.045700
     46 H20          2.1780   -23.5840    47.7950 hc         1 JEO       0.080700
     47 H21          0.8990   -21.9950    46.4760 hc         1 JEO       0.068200
     48 H22          0.2370   -21.2230    47.9070 hc         1 JEO       0.068200
     49 H23         -0.0590   -24.5090    50.6390 hc         1 JEO       0.050700
     50 H24          0.6130   -25.0410    49.1130 hc         1 JEO       0.050700
     51 H25         -1.4180   -22.7850    49.4580 hc         1 JEO       0.063200
     52 H26         -1.7480   -24.3850    48.8010 hc         1 JEO       0.063200
     53 H27         -1.9510   -24.4960    44.3730 h1         1 JEO       0.060700
     54 H28         -1.1380   -23.2980    43.3440 h1         1 JEO       0.060700
     55 H29         -2.6430   -21.5210    44.2630 h1         1 JEO       0.038700
     56 H30         -3.4870   -22.7440    45.2150 h1         1 JEO       0.038700
     57 H31         -4.7040   -22.4790    43.2410 hn         1 JEO       0.395000
     58 H32         -3.4040   -22.6560    42.2880 hn         1 JEO       0.395000
@<TRIPOS>BOND
     1     1     2 1   
     2     1     5 1   
     3     1    24 2   
     4     2     3 1   
     5     2    27 1   
     6     2    28 1   
     7     3     6 1   
     8     3    29 1   
     9     3    30 1   
    10     4     5 1   
    11     4    31 1   
    12     4    32 1   
    13     4    33 1   
    14     5     6 1   
    15     5     7 1   
    16     6     8 1   
    17     6    34 1   
    18     7    12 1   
    19     7    35 1   
    20     7    36 1   
    21     8     9 1   
    22     8    13 1   
    23     8    37 1   
    24     9    10 1   
    25     9    38 1   
    26     9    39 1   
    27    10    15 1   
    28    10    25 2   
    29    11    14 1   
    30    11    40 1   
    31    11    41 1   
    32    11    42 1   
    33    12    13 1   
    34    12    43 1   
    35    12    44 1   
    36    13    14 1   
    37    13    45 1   
    38    14    15 1   
    39    14    17 1   
    40    15    16 1   
    41    15    46 1   
    42    16    19 1   
    43    16    47 1   
    44    16    48 1   
    45    17    18 1   
    46    17    49 1   
    47    17    50 1   
    48    18    19 1   
    49    18    51 1   
    50    18    52 1   
    51    19    22 2   
    52    20    21 1   
    53    20    26 1   
    54    20    53 1   
    55    20    54 1   
    56    21    23 1   
    57    21    55 1   
    58    21    56 1   
    59    22    26 1   
    60    23    57 1   
    61    23    58 1   
@<TRIPOS>SUBSTRUCTURE
     1 JEO         1 TEMP              0 ****  ****    0 ROOT
