@<TRIPOS>MOLECULE
JEQ
   57    61     1     0     0
SMALL
abcg2


@<TRIPOS>ATOM
      1 C10          3.3120     2.7430     1.0470 ca         1 JEQ      -0.068000
      2 C13         -0.3070     2.8780     0.9710 cc         1 JEQ      -0.153100
      3 C15         -1.0060     0.5380     0.4140 c3         1 JEQ       0.082600
      4 C17         -2.1400    -0.8890    -1.2950 c6         1 JEQ       0.172800
      5 C20         -5.6630    -1.2940    -0.1200 ca         1 JEQ      -0.088300
      6 C21         -6.9050    -1.7090    -0.5880 ca         1 JEQ      -0.099000
      7 C22         -8.0620    -1.4550     0.1400 ca         1 JEQ      -0.113500
      8 C24         -6.7520    -0.3480     1.8190 ca         1 JEQ      -0.113500
      9 C26         -3.9580     0.6050    -1.7300 c6         1 JEQ       0.165800
     10 C28         -1.6070     1.4740    -1.8860 c6         1 JEQ      -0.074400
     11 C02          5.9090    -2.2940    -0.1540 cc         1 JEQ       0.294000
     12 N03          4.8280    -2.8850     0.3640 na         1 JEQ      -0.046200
     13 N04          3.8450    -2.0220     0.6910 nc         1 JEQ      -0.524800
     14 C05          4.2900    -0.8340     0.3700 cd         1 JEQ       0.398500
     15 C06          3.4680     0.3620     0.5650 ca         1 JEQ      -0.126500
     16 C07          2.0850     0.2540     0.4960 ca         1 JEQ      -0.089000
     17 C08          1.3270     1.4010     0.7070 ca         1 JEQ      -0.060200
     18 C09          1.9170     2.6560     0.9800 ca         1 JEQ      -0.084800
     19 C11          4.0680     1.6080     0.8430 ca         1 JEQ      -0.114000
     20 C12          0.8480     3.5860     1.1420 cd         1 JEQ      -0.248200
     21 N14         -0.0310     1.5640     0.7130 na         1 JEQ      -0.085700
     22 C16         -1.1530     0.2550    -1.0840 c6         1 JEQ      -0.077700
     23 N18         -3.4790    -0.4920    -0.9070 n3         1 JEQ      -0.732600
     24 C19         -4.4030    -1.6050    -0.8890 c3         1 JEQ       0.218100
     25 C23         -7.9880    -0.7730     1.3460 ca         1 JEQ      -0.109000
     26 C25         -5.5990    -0.6080     1.0920 ca         1 JEQ      -0.099000
     27 C27         -3.0600     1.8240    -1.5880 c6         1 JEQ      -0.076400
     28 C29          5.6050    -0.9270    -0.1760 cd         1 JEQ      -0.228000
     29 C30          6.4300     0.0690    -0.7140 ch         1 JEQ       0.376000
     30 N31          7.1310     0.8750    -1.1570 n1         1 JEQ      -0.491000
     31 H1           3.7960     3.6850     1.2690 ha         1 JEQ       0.117000
     32 H2          -1.3310     3.2150     1.0210 h4         1 JEQ       0.210000
     33 H3          -0.7130    -0.3780     0.9320 h1         1 JEQ       0.066200
     34 H4          -1.9570     0.8450     0.8470 h1         1 JEQ       0.066200
     35 H5          -2.0960    -1.2090    -2.3510 h1         1 JEQ       0.034200
     36 H6          -1.8410    -1.7530    -0.6950 h1         1 JEQ       0.034200
     37 H7          -6.9710    -2.2340    -1.5340 ha         1 JEQ       0.116000
     38 H8          -9.0200    -1.7810    -0.2410 ha         1 JEQ       0.112000
     39 H9          -6.6860     0.1890     2.7570 ha         1 JEQ       0.112000
     40 H10         -4.0090     0.3040    -2.7930 h1         1 JEQ       0.035700
     41 H11         -4.9750     0.8600    -1.4250 h1         1 JEQ       0.035700
     42 H12         -0.9540     2.3300    -1.6990 hc         1 JEQ       0.049200
     43 H13         -1.5050     1.2410    -2.9500 hc         1 JEQ       0.049200
     44 H14          6.9730    -3.9310    -0.6950 hn         1 JEQ       0.480000
     45 H15          7.6790    -2.4570    -1.1050 hn         1 JEQ       0.480000
     46 H16          4.7050    -3.8690     0.5410 hn         1 JEQ       0.372000
     47 H17          1.6230    -0.6990     0.2730 ha         1 JEQ       0.123000
     48 H18          5.1440     1.6790     0.9220 ha         1 JEQ       0.120000
     49 H19          0.9220     4.6380     1.3650 ha         1 JEQ       0.206000
     50 H20         -0.1810    -0.0750    -1.4660 hc         1 JEQ       0.060700
     51 H22         -3.9000    -2.4510    -0.4080 h1         1 JEQ       0.038200
     52 H23         -4.6690    -1.9460    -1.9030 h1         1 JEQ       0.038200
     53 H24         -8.8880    -0.5690     1.9130 ha         1 JEQ       0.112000
     54 H25         -4.6370    -0.2670     1.4540 ha         1 JEQ       0.116000
     55 H26         -3.4060     2.6110    -2.2610 hc         1 JEQ       0.045200
     56 H27         -3.1610     2.2200    -0.5740 hc         1 JEQ       0.045200
     57 N01          7.0380    -2.9440    -0.5010 nv         1 JEQ      -1.079000
@<TRIPOS>BOND
     1     1    18 ar  
     2     1    19 ar  
     3     1    31 1   
     4     2    20 2   
     5     2    21 1   
     6     2    32 1   
     7     3    21 1   
     8     3    22 1   
     9     3    33 1   
    10     3    34 1   
    11     4    22 1   
    12     4    23 1   
    13     4    35 1   
    14     4    36 1   
    15     5     6 ar  
    16     5    24 1   
    17     5    26 ar  
    18     6     7 ar  
    19     6    37 1   
    20     7    25 ar  
    21     7    38 1   
    22     8    25 ar  
    23     8    26 ar  
    24     8    39 1   
    25     9    23 1   
    26     9    27 1   
    27     9    40 1   
    28     9    41 1   
    29    10    22 1   
    30    10    27 1   
    31    10    42 1   
    32    10    43 1   
    33    11    12 1   
    34    11    28 2   
    35    11    57 1   
    36    12    13 1   
    37    12    46 1   
    38    13    14 2   
    39    14    15 1   
    40    14    28 1   
    41    15    16 ar  
    42    15    19 ar  
    43    16    17 ar  
    44    16    47 1   
    45    17    18 ar  
    46    17    21 1   
    47    18    20 1   
    48    19    48 1   
    49    20    49 1   
    50    22    50 1   
    51    23    24 1   
    52    24    51 1   
    53    24    52 1   
    54    25    53 1   
    55    26    54 1   
    56    27    55 1   
    57    27    56 1   
    58    28    29 1   
    59    29    30 3   
    60    44    57 1   
    61    45    57 1   
@<TRIPOS>SUBSTRUCTURE
     1 JEQ         1 TEMP              0 ****  ****    0 ROOT
