@<TRIPOS>MOLECULE
JEQ
   57    61     1     0     0
SMALL
No Charge or Current Charge


@<TRIPOS>ATOM
      1 C10          3.4820     2.8350     0.9810 ca         1 JEQ      -0.068000
      2 C13         -0.2020     3.1260     0.9770 cc         1 JEQ      -0.153100
      3 C15         -0.9030     0.6830     0.5260 c3         1 JEQ       0.082600
      4 C17         -2.0940    -0.9370    -1.0610 c6         1 JEQ       0.172800
      5 C20         -5.7680    -1.4080    -0.0600 ca         1 JEQ      -0.088300
      6 C21         -6.9160    -1.4800    -0.8750 ca         1 JEQ      -0.099000
      7 C22         -8.1830    -1.1840    -0.3420 ca         1 JEQ      -0.113500
      8 C24         -7.1700    -0.7410     1.8250 ca         1 JEQ      -0.113500
      9 C26         -4.0020     0.5370    -1.5620 c6         1 JEQ       0.165800
     10 C28         -1.6290     1.4250    -1.8630 c6         1 JEQ      -0.074400
     11 C02          5.9360    -2.2940    -0.2370 cc         1 JEQ       0.294000
     12 N03          4.9300    -2.8690     0.5190 na         1 JEQ      -0.046200
     13 N04          3.9470    -1.9680     0.8960 nc         1 JEQ      -0.524800
     14 C05          4.3820    -0.8300     0.3730 cd         1 JEQ       0.398500
     15 C06          3.5930     0.4120     0.5330 ca         1 JEQ      -0.126500
     16 C07          2.1750     0.3540     0.5250 ca         1 JEQ      -0.089000
     17 C08          1.4520     1.5420     0.7180 ca         1 JEQ      -0.060200
     18 C09          2.0900     2.7300     0.9340 ca         1 JEQ      -0.084800
     19 C11          4.2340     1.6570     0.7870 ca         1 JEQ      -0.114000
     20 C12          1.0500     3.7140     1.0960 cd         1 JEQ      -0.248200
     21 N14          0.0770     1.7640     0.7390 na         1 JEQ      -0.085700
     22 C16         -1.1190     0.2660    -0.9630 c6         1 JEQ      -0.077700
     23 N18         -3.4840    -0.5550    -0.6860 n3         1 JEQ      -0.732600
     24 C19         -4.3890    -1.7280    -0.6330 c3         1 JEQ       0.218100
     25 C23         -8.3110    -0.8150     1.0080 ca         1 JEQ      -0.109000
     26 C25         -5.9030    -1.0370     1.2920 ca         1 JEQ      -0.099000
     27 C27         -3.0930     1.7900    -1.5210 c6         1 JEQ      -0.076400
     28 C29          5.5960    -0.9830    -0.3470 cd         1 JEQ      -0.228000
     29 C30          6.3090    -0.0020    -1.0720 ch         1 JEQ       0.376000
     30 N31          6.9180     0.7910    -1.6770 n1         1 JEQ      -0.491000
     31 H1           3.9690     3.7890     1.1710 ha         1 JEQ       0.117000
     32 H2          -1.2060     3.5330     1.0350 h4         1 JEQ       0.210000
     33 H3          -0.5750    -0.1960     1.0950 h1         1 JEQ       0.066200
     34 H4          -1.8620     0.9980     0.9550 h1         1 JEQ       0.066200
     35 H5          -2.0760    -1.3290    -2.0890 h1         1 JEQ       0.034200
     36 H6          -1.7300    -1.7430    -0.4070 h1         1 JEQ       0.034200
     37 H7          -6.8270    -1.7630    -1.9210 ha         1 JEQ       0.116000
     38 H8          -9.0660    -1.2410    -0.9760 ha         1 JEQ       0.112000
     39 H9          -7.2670    -0.4540     2.8700 ha         1 JEQ       0.112000
     40 H10         -4.0770     0.1830    -2.6010 h1         1 JEQ       0.035700
     41 H11         -5.0140     0.8370    -1.2520 h1         1 JEQ       0.035700
     42 H12         -0.9840     2.3090    -1.7690 hc         1 JEQ       0.049200
     43 H13         -1.5700     1.1180    -2.9170 hc         1 JEQ       0.049200
     44 H14          7.0120    -4.0190    -0.6790 hn         1 JEQ       0.480000
     45 H15          7.6380    -2.5600    -1.3910 hn         1 JEQ       0.480000
     46 H16          4.8820    -3.8490     0.7830 hn         1 JEQ       0.372000
     47 H17          1.6590    -0.5900     0.3610 ha         1 JEQ       0.123000
     48 H18          5.3180     1.7160     0.8500 ha         1 JEQ       0.120000
     49 H19          1.2170     4.7720     1.2840 ha         1 JEQ       0.206000
     50 H20         -0.1390    -0.0590    -1.3380 hc         1 JEQ       0.060700
     51 H22         -3.9420    -2.5110    -0.0050 h1         1 JEQ       0.038200
     52 H23         -4.5050    -2.1580    -1.6380 h1         1 JEQ       0.038200
     53 H24         -9.2920    -0.5860     1.4200 ha         1 JEQ       0.112000
     54 H25         -5.0220    -0.9740     1.9270 ha         1 JEQ       0.116000
     55 H26         -3.4660     2.5400    -2.2310 hc         1 JEQ       0.045200
     56 H27         -3.1470     2.2530    -0.5270 hc         1 JEQ       0.045200
     57 N01          6.9960    -3.0000    -0.7320 nv         1 JEQ      -1.079000
@<TRIPOS>BOND
     1     1    18 ar  
     2     1    19 ar  
     3     1    31 1   
     4     2    20 2   
     5     2    21 1   
     6     2    32 1   
     7     3    21 1   
     8     3    22 1   
     9     3    33 1   
    10     3    34 1   
    11     4    22 1   
    12     4    23 1   
    13     4    35 1   
    14     4    36 1   
    15     5     6 ar  
    16     5    24 1   
    17     5    26 ar  
    18     6     7 ar  
    19     6    37 1   
    20     7    25 ar  
    21     7    38 1   
    22     8    25 ar  
    23     8    26 ar  
    24     8    39 1   
    25     9    23 1   
    26     9    27 1   
    27     9    40 1   
    28     9    41 1   
    29    10    22 1   
    30    10    27 1   
    31    10    42 1   
    32    10    43 1   
    33    11    12 1   
    34    11    28 2   
    35    11    57 1   
    36    12    13 1   
    37    12    46 1   
    38    13    14 2   
    39    14    15 1   
    40    14    28 1   
    41    15    16 ar  
    42    15    19 ar  
    43    16    17 ar  
    44    16    47 1   
    45    17    18 ar  
    46    17    21 1   
    47    18    20 1   
    48    19    48 1   
    49    20    49 1   
    50    22    50 1   
    51    23    24 1   
    52    24    51 1   
    53    24    52 1   
    54    25    53 1   
    55    26    54 1   
    56    27    55 1   
    57    27    56 1   
    58    28    29 1   
    59    29    30 3   
    60    44    57 1   
    61    45    57 1   
@<TRIPOS>SUBSTRUCTURE
     1 JEQ         1 TEMP              0 ****  ****    0 ROOT
