@<TRIPOS>MOLECULE
JER
   64    67     1     0     0
SMALL
No Charge or Current Charge


@<TRIPOS>ATOM
      1 C13        105.4400   110.9350    69.9770 c3         1 JER      -0.022100
      2 C15        106.6740   113.6200    74.0710 cc         1 JER       0.621500
      3 C11        106.0050   112.3220    72.0220 ca         1 JER      -0.059000
      4 C10        105.7890   113.4010    72.9100 ca         1 JER      -0.146500
      5 C02        100.9090   113.4620    67.8800 c3         1 JER       0.168600
      6 C03        101.2540   112.0480    68.4400 c3         1 JER       0.169300
      7 C04        101.9880   112.1250    69.8030 c3         1 JER       0.126600
      8 C06        104.0780   112.9860    70.6900 ca         1 JER       0.123100
      9 C07        103.8540   114.0800    71.5540 ca         1 JER      -0.097300
     10 C08        102.7150   115.0660    71.3110 c3         1 JER      -0.041800
     11 C09        104.7050   114.2740    72.6580 ca         1 JER      -0.066000
     12 C12        105.1610   112.1090    70.9150 ca         1 JER      -0.098300
     13 C14        106.2140   111.3660    68.7170 c3         1 JER      -0.087100
     14 C18        108.2340   113.3080    75.3960 cd         1 JER       0.542500
     15 C20        109.4150   112.8200    76.1400 ca         1 JER      -0.087500
     16 C21        110.1230   111.6800    75.7160 ca         1 JER      -0.140000
     17 C22        111.2380   111.2420    76.4420 ca         1 JER       0.587300
     18 C24        113.0530   109.6080    76.6790 c3         1 JER       0.159900
     19 C26        111.0170   112.9730    77.9860 ca         1 JER       0.405300
     20 C27        109.8880   113.4660    77.3010 ca         1 JER      -0.167000
     21 C28        111.4900   113.7170    79.2480 c5         1 JER      -0.122000
     22 C29        112.9860   114.1080    79.1100 c5         1 JER      -0.070900
     23 C30        113.3330   114.4860    80.5800 c5         1 JER      -0.079400
     24 C31        112.4050   113.5800    81.4620 c5         1 JER      -0.079400
     25 C32        111.5830   112.7350    80.4460 c5         1 JER      -0.070900
     26 N16        106.5140   114.6190    74.9270 nd         1 JER      -0.373300
     27 N19        107.7210   112.7770    74.3090 nc         1 JER      -0.713000
     28 N25        111.6760   111.8720    77.5510 nb         1 JER      -0.750000
     29 O05        103.2540   112.7800    69.6080 os         1 JER      -0.370100
     30 O17        107.5750   114.4150    75.8370 os         1 JER      -0.079700
     31 O23        111.8970   110.1230    75.9890 os         1 JER      -0.457300
     32 O33        100.0540   111.2560    68.5870 oh         1 JER      -0.643000
     33 H1         104.5040   110.4510    69.6740 hc         1 JER       0.044700
     34 H2         106.0190   110.1610    70.4970 hc         1 JER       0.044700
     35 H3         106.8370   111.6400    72.1840 ha         1 JER       0.137000
     36 H4         101.8240   114.0680    67.8520 h1         1 JER       0.031200
     37 H5         100.2110   113.9580    68.5680 h1         1 JER       0.031200
     38 H6         101.9330   111.5620    67.7250 h1         1 JER       0.056700
     39 H7         101.3680   112.6770    70.5220 h1         1 JER       0.038200
     40 H8         102.1440   111.1120    70.1950 h1         1 JER       0.038200
     41 H9         101.7750   114.6930    71.7340 hc         1 JER       0.046033
     42 H10        102.9200   116.0390    71.7730 hc         1 JER       0.046033
     43 H11        102.5570   115.2460    70.2410 hc         1 JER       0.046033
     44 H12        104.5190   115.1170    73.3210 ha         1 JER       0.131000
     45 H13        106.4070   110.5010    68.0720 hc         1 JER       0.038367
     46 H14        105.6400   112.1020    68.1430 hc         1 JER       0.038367
     47 H15        107.1770   111.8140    68.9910 hc         1 JER       0.038367
     48 H16        109.8220   111.1280    74.8320 ha         1 JER       0.160000
     49 H17        113.4370   108.7160    76.1680 h1         1 JER       0.047700
     50 H18        113.8580   110.3550    76.7080 h1         1 JER       0.047700
     51 H19        112.8010   109.3270    77.7100 h1         1 JER       0.047700
     52 H20        109.3860   114.3520    77.6810 ha         1 JER       0.143000
     53 H21        110.8640   114.5860    79.4830 hc         1 JER       0.055700
     54 H22        113.6130   113.2750    78.7670 hc         1 JER       0.051450
     55 H23        113.1440   114.9410    78.4160 hc         1 JER       0.051450
     56 H24        114.3950   114.3240    80.7980 hc         1 JER       0.041950
     57 H25        113.1290   115.5460    80.7700 hc         1 JER       0.041950
     58 H26        112.9780   112.9440    82.1460 hc         1 JER       0.041950
     59 H27        111.7450   114.1970    82.0840 hc         1 JER       0.041950
     60 H28        110.5990   112.4510    80.8380 hc         1 JER       0.051450
     61 H29        112.1140   111.8080    80.1960 hc         1 JER       0.051450
     62 H30        100.0960   114.2990    66.2970 ho         1 JER       0.443000
     63 H31        100.3250   110.3120    68.5690 ho         1 JER       0.442000
     64 O01        100.3400   113.3840    66.5580 oh         1 JER      -0.651000
@<TRIPOS>BOND
     1     1    12 1   
     2     1    13 1   
     3     1    33 1   
     4     1    34 1   
     5     2     4 1   
     6     2    26 2   
     7     2    27 1   
     8     3     4 ar  
     9     3    12 ar  
    10     3    35 1   
    11     4    11 ar  
    12     5     6 1   
    13     5    36 1   
    14     5    37 1   
    15     5    64 1   
    16     6     7 1   
    17     6    32 1   
    18     6    38 1   
    19     7    29 1   
    20     7    39 1   
    21     7    40 1   
    22     8     9 ar  
    23     8    12 ar  
    24     8    29 1   
    25     9    10 1   
    26     9    11 ar  
    27    10    41 1   
    28    10    42 1   
    29    10    43 1   
    30    11    44 1   
    31    13    45 1   
    32    13    46 1   
    33    13    47 1   
    34    14    15 1   
    35    14    27 2   
    36    14    30 1   
    37    15    16 ar  
    38    15    20 ar  
    39    16    17 ar  
    40    16    48 1   
    41    17    28 ar  
    42    17    31 1   
    43    18    31 1   
    44    18    49 1   
    45    18    50 1   
    46    18    51 1   
    47    19    20 ar  
    48    19    21 1   
    49    19    28 ar  
    50    20    52 1   
    51    21    22 1   
    52    21    25 1   
    53    21    53 1   
    54    22    23 1   
    55    22    54 1   
    56    22    55 1   
    57    23    24 1   
    58    23    56 1   
    59    23    57 1   
    60    24    25 1   
    61    24    58 1   
    62    24    59 1   
    63    25    60 1   
    64    25    61 1   
    65    26    30 1   
    66    32    63 1   
    67    62    64 1   
@<TRIPOS>SUBSTRUCTURE
     1 JER         1 TEMP              0 ****  ****    0 ROOT
