@<TRIPOS>MOLECULE
JER
   64    67     1     0     0
SMALL
abcg2


@<TRIPOS>ATOM
      1 C13        105.7520   111.3630    69.7580 c3         1 JER      -0.022100
      2 C15        106.5980   113.6210    74.0930 cc         1 JER       0.621500
      3 C11        106.0830   112.5070    71.9640 ca         1 JER      -0.059000
      4 C10        105.7330   113.4430    72.9310 ca         1 JER      -0.146500
      5 C02        100.8200   113.2330    68.1260 c3         1 JER       0.168600
      6 C03        101.5550   111.9320    68.3800 c3         1 JER       0.169300
      7 C04        102.3240   111.9720    69.6960 c3         1 JER       0.126600
      8 C06        104.1420   113.0790    70.6950 ca         1 JER       0.123100
      9 C07        103.7670   114.0320    71.6500 ca         1 JER      -0.097300
     10 C08        102.5310   114.8610    71.4640 c3         1 JER      -0.041800
     11 C09        104.5790   114.2050    72.7610 ca         1 JER      -0.066000
     12 C12        105.3020   112.3160    70.8320 ca         1 JER      -0.098300
     13 C14        106.4390   112.0880    68.6010 c3         1 JER      -0.087100
     14 C18        108.1040   113.2650    75.4770 cd         1 JER       0.542500
     15 C20        109.2180   112.7530    76.2680 ca         1 JER      -0.087500
     16 C21        109.6980   111.4900    75.9840 ca         1 JER      -0.140000
     17 C22        110.7760   111.0310    76.7490 ca         1 JER       0.587300
     18 C24        112.3330   109.3150    77.2130 c3         1 JER       0.159900
     19 C26        110.8800   112.9650    77.9690 ca         1 JER       0.405300
     20 C27        109.8090   113.5110    77.2820 ca         1 JER      -0.167000
     21 C28        111.5890   113.7340    79.0430 c5         1 JER      -0.122000
     22 C29        113.0750   113.9790    78.7590 c5         1 JER      -0.070900
     23 C30        113.6020   114.4630    80.1060 c5         1 JER      -0.079400
     24 C31        112.8280   113.6400    81.1550 c5         1 JER      -0.079400
     25 C32        111.6150   113.0390    80.4140 c5         1 JER      -0.070900
     26 N16        106.5230   114.6340    74.9090 nd         1 JER      -0.373300
     27 N19        107.5850   112.7380    74.4200 nc         1 JER      -0.713000
     28 N25        111.3420   111.7410    77.6970 nb         1 JER      -0.750000
     29 O05        103.3740   112.9240    69.5810 os         1 JER      -0.370100
     30 O17        107.5130   114.3990    75.8210 os         1 JER      -0.079700
     31 O23        111.2280   109.8100    76.4710 os         1 JER      -0.457300
     32 O33        100.6000   110.8970    68.4300 oh         1 JER      -0.643000
     33 H1         104.9160   110.7760    69.3760 hc         1 JER       0.044700
     34 H2         106.4490   110.6470    70.1980 hc         1 JER       0.044700
     35 H3         106.9840   111.9180    72.0840 ha         1 JER       0.137000
     36 H4         101.5320   114.0610    68.2160 h1         1 JER       0.031200
     37 H5         100.0660   113.3720    68.9150 h1         1 JER       0.031200
     38 H6         102.2750   111.7700    67.5640 h1         1 JER       0.056700
     39 H7         101.6470   112.2290    70.5200 h1         1 JER       0.038200
     40 H8         102.7340   110.9770    69.9060 h1         1 JER       0.038200
     41 H9         101.6220   114.2630    71.5490 hc         1 JER       0.046033
     42 H10        102.4750   115.6440    72.2190 hc         1 JER       0.046033
     43 H11        102.5100   115.3380    70.4840 hc         1 JER       0.046033
     44 H12        104.3010   114.9400    73.5070 ha         1 JER       0.131000
     45 H13        106.7740   111.3760    67.8460 hc         1 JER       0.038367
     46 H14        105.7630   112.7940    68.1180 hc         1 JER       0.038367
     47 H15        107.3110   112.6420    68.9490 hc         1 JER       0.038367
     48 H16        109.2660   110.8760    75.2060 ha         1 JER       0.160000
     49 H17        112.5310   108.3200    76.8220 h1         1 JER       0.047700
     50 H18        113.2200   109.9360    77.0830 h1         1 JER       0.047700
     51 H19        112.1080   109.2440    78.2780 h1         1 JER       0.047700
     52 H20        109.4610   114.5050    77.5250 ha         1 JER       0.143000
     53 H21        111.0980   114.7070    79.1480 hc         1 JER       0.055700
     54 H22        113.5520   113.0370    78.4750 hc         1 JER       0.051450
     55 H23        113.2400   114.6910    77.9490 hc         1 JER       0.051450
     56 H24        114.6830   114.3530    80.1990 hc         1 JER       0.041950
     57 H25        113.3800   115.5270    80.2230 hc         1 JER       0.041950
     58 H26        113.4510   112.8470    81.5680 hc         1 JER       0.041950
     59 H27        112.5200   114.2630    81.9960 hc         1 JER       0.041950
     60 H28        110.6780   113.1760    80.9550 hc         1 JER       0.051450
     61 H29        111.7500   111.9660    80.2720 hc         1 JER       0.051450
     62 H30         99.8060   114.0280    66.6830 ho         1 JER       0.443000
     63 H31        101.0590   110.0520    68.3990 ho         1 JER       0.442000
     64 O01        100.2400   113.1860    66.8440 oh         1 JER      -0.651000
@<TRIPOS>BOND
     1     1    12 1   
     2     1    13 1   
     3     1    33 1   
     4     1    34 1   
     5     2     4 1   
     6     2    26 2   
     7     2    27 1   
     8     3     4 ar  
     9     3    12 ar  
    10     3    35 1   
    11     4    11 ar  
    12     5     6 1   
    13     5    36 1   
    14     5    37 1   
    15     5    64 1   
    16     6     7 1   
    17     6    32 1   
    18     6    38 1   
    19     7    29 1   
    20     7    39 1   
    21     7    40 1   
    22     8     9 ar  
    23     8    12 ar  
    24     8    29 1   
    25     9    10 1   
    26     9    11 ar  
    27    10    41 1   
    28    10    42 1   
    29    10    43 1   
    30    11    44 1   
    31    13    45 1   
    32    13    46 1   
    33    13    47 1   
    34    14    15 1   
    35    14    27 2   
    36    14    30 1   
    37    15    16 ar  
    38    15    20 ar  
    39    16    17 ar  
    40    16    48 1   
    41    17    28 ar  
    42    17    31 1   
    43    18    31 1   
    44    18    49 1   
    45    18    50 1   
    46    18    51 1   
    47    19    20 ar  
    48    19    21 1   
    49    19    28 ar  
    50    20    52 1   
    51    21    22 1   
    52    21    25 1   
    53    21    53 1   
    54    22    23 1   
    55    22    54 1   
    56    22    55 1   
    57    23    24 1   
    58    23    56 1   
    59    23    57 1   
    60    24    25 1   
    61    24    58 1   
    62    24    59 1   
    63    25    60 1   
    64    25    61 1   
    65    26    30 1   
    66    32    63 1   
    67    62    64 1   
@<TRIPOS>SUBSTRUCTURE
     1 JER         1 TEMP              0 ****  ****    0 ROOT
