@<TRIPOS>MOLECULE
JET
   35    36     1     0     0
SMALL
No Charge or Current Charge


@<TRIPOS>ATOM
      1 C17         -4.5250    -0.6260     0.1410 cc         1 JET      -0.276600
      2 C21         -4.0480    -1.3510    -0.9550 cc         1 JET       0.299900
      3 O01         -4.2590     1.0340     1.8120 o          1 JET      -0.505000
      4 C02         -3.7940     0.4290     0.8550 c          1 JET       0.647700
      5 O03         -2.5460     0.6670     0.3470 os         1 JET      -0.436100
      6 C04         -1.7430     1.6810     0.9730 c3         1 JET       0.212900
      7 C05         -0.4110     1.7590     0.2390 ca         1 JET      -0.062300
      8 C06         -0.2080     2.7190    -0.7710 ca         1 JET      -0.120000
      9 C07          1.0220     2.7870    -1.4480 ca         1 JET      -0.078000
     10 C08          2.0580     1.8950    -1.1200 ca         1 JET      -0.188000
     11 C09          1.8620     0.9280    -0.1100 ca         1 JET       0.133100
     12 O10          2.8410     0.0260     0.2530 os         1 JET      -0.320100
     13 C11          4.1450     0.0050    -0.3780 c3         1 JET       0.097600
     14 C12          5.0560    -1.0950     0.2050 c          1 JET       0.590100
     15 O13          6.2870    -1.0990    -0.4050 os         1 JET      -0.450100
     16 C14          7.2570    -2.0720     0.0290 c3         1 JET       0.154900
     17 O15          4.7310    -1.8690     1.0990 o          1 JET      -0.449000
     18 C16          0.6300     0.8670     0.5620 ca         1 JET      -0.113000
     19 C18         -5.7810    -1.0810     0.4140 cd         1 JET      -0.097000
     20 N19         -6.0020    -2.0760    -0.5490 na         1 JET      -0.000200
     21 N20         -4.9100    -2.2420    -1.4080 nd         1 JET      -0.527800
     22 H1          -3.0870    -1.2560    -1.4450 h4         1 JET       0.054100
     23 H2          -2.2450     2.6570     0.9310 h1         1 JET       0.057700
     24 H3          -1.5630     1.4390     2.0300 h1         1 JET       0.057700
     25 H4          -1.0040     3.4120    -1.0350 ha         1 JET       0.120000
     26 H5           1.1710     3.5310    -2.2270 ha         1 JET       0.115000
     27 H6           2.9980     1.9700    -1.6590 ha         1 JET       0.116000
     28 H7           4.0540    -0.1840    -1.4540 h1         1 JET       0.064200
     29 H8           4.6600     0.9630    -0.2400 h1         1 JET       0.064200
     30 H9           6.8840    -3.0940    -0.1240 h1         1 JET       0.051033
     31 H10          8.1890    -1.9630    -0.5390 h1         1 JET       0.051033
     32 H11          7.4920    -1.9440     1.0940 h1         1 JET       0.051033
     33 H12          0.4840     0.1180     1.3360 ha         1 JET       0.136000
     34 H13         -6.5060    -0.8010     1.1720 h4         1 JET       0.171000
     35 H14         -6.8490    -2.6370    -0.6470 hn         1 JET       0.376000
@<TRIPOS>BOND
     1     1     2 1   
     2     1     4 1   
     3     1    19 2   
     4     2    21 2   
     5     2    22 1   
     6     3     4 2   
     7     4     5 1   
     8     5     6 1   
     9     6     7 1   
    10     6    23 1   
    11     6    24 1   
    12     7     8 ar  
    13     7    18 ar  
    14     8     9 ar  
    15     8    25 1   
    16     9    10 ar  
    17     9    26 1   
    18    10    11 ar  
    19    10    27 1   
    20    11    12 1   
    21    11    18 ar  
    22    12    13 1   
    23    13    14 1   
    24    13    28 1   
    25    13    29 1   
    26    14    15 1   
    27    14    17 2   
    28    15    16 1   
    29    16    30 1   
    30    16    31 1   
    31    16    32 1   
    32    18    33 1   
    33    19    20 1   
    34    19    34 1   
    35    20    21 1   
    36    20    35 1   
@<TRIPOS>SUBSTRUCTURE
     1 JET         1 TEMP              0 ****  ****    0 ROOT
