@<TRIPOS>MOLECULE
JET
   35    36     1     0     0
SMALL
bcc


@<TRIPOS>ATOM
      1 C17         -4.3980    -0.5830     0.1030 cc         1 JET      -0.341900
      2 C21         -3.9860    -1.3430    -1.0120 cc         1 JET       0.365200
      3 O01         -4.1250     0.9980     1.8340 o          1 JET      -0.554000
      4 C02         -3.6750     0.4230     0.8690 c          1 JET       0.696700
      5 O03         -2.4580     0.6330     0.3820 os         1 JET      -0.412900
      6 C04         -1.6300     1.5920     1.0570 c3         1 JET       0.189700
      7 C05         -0.3480     1.6800     0.2860 ca         1 JET      -0.062300
      8 C06         -0.2140     2.5930    -0.7580 ca         1 JET      -0.138000
      9 C07          0.9710     2.6460    -1.4710 ca         1 JET      -0.096000
     10 C08          2.0310     1.7990    -1.1650 ca         1 JET      -0.206000
     11 C09          1.8940     0.8850    -0.1250 ca         1 JET       0.133100
     12 O10          2.8530     0.0170     0.2610 os         1 JET      -0.296900
     13 C11          4.0790     0.0350    -0.4160 c3         1 JET       0.074400
     14 C12          4.9560    -1.0270     0.2040 c          1 JET       0.639100
     15 O13          6.1450    -1.0210    -0.3730 os         1 JET      -0.426900
     16 C14          7.1080    -1.9740     0.0840 c3         1 JET       0.131700
     17 O15          4.6230    -1.7690     1.0870 o          1 JET      -0.498000
     18 C16          0.7020     0.8310     0.5970 ca         1 JET      -0.131000
     19 C18         -5.6920    -1.0040     0.3460 cd         1 JET      -0.064300
     20 N19         -5.9570    -1.9260    -0.5770 na         1 JET      -0.000600
     21 N20         -4.9420    -2.1520    -1.4120 nd         1 JET      -0.527800
     22 H1          -3.0350    -1.3240    -1.5230 h4         1 JET       0.054100
     23 H2          -2.1320     2.5600     1.0910 h1         1 JET       0.057700
     24 H3          -1.4500     1.2660     2.0830 h1         1 JET       0.057700
     25 H4          -1.0290     3.2630    -1.0050 ha         1 JET       0.138000
     26 H5           1.0830     3.3560    -2.2800 ha         1 JET       0.133000
     27 H6           2.9450     1.8730    -1.7390 ha         1 JET       0.134000
     28 H7           3.9630    -0.1820    -1.4850 h1         1 JET       0.064200
     29 H8           4.5810     1.0060    -0.3350 h1         1 JET       0.064200
     30 H9           6.7620    -2.9940    -0.0790 h1         1 JET       0.051033
     31 H10          8.0030    -1.7970    -0.5040 h1         1 JET       0.051033
     32 H11          7.3340    -1.8330     1.1410 h1         1 JET       0.051033
     33 H12          0.6080     0.1200     1.4090 ha         1 JET       0.154000
     34 H13         -6.4120    -0.7100     1.0910 h4         1 JET       0.189000
     35 H14         -6.8180    -2.4390    -0.6870 hn         1 JET       0.325700
@<TRIPOS>BOND
     1     1     2 1   
     2     1     4 1   
     3     1    19 2   
     4     2    21 2   
     5     2    22 1   
     6     3     4 2   
     7     4     5 1   
     8     5     6 1   
     9     6     7 1   
    10     6    23 1   
    11     6    24 1   
    12     7     8 ar  
    13     7    18 ar  
    14     8     9 ar  
    15     8    25 1   
    16     9    10 ar  
    17     9    26 1   
    18    10    11 ar  
    19    10    27 1   
    20    11    12 1   
    21    11    18 ar  
    22    12    13 1   
    23    13    14 1   
    24    13    28 1   
    25    13    29 1   
    26    14    15 1   
    27    14    17 2   
    28    15    16 1   
    29    16    30 1   
    30    16    31 1   
    31    16    32 1   
    32    18    33 1   
    33    19    20 1   
    34    19    34 1   
    35    20    21 1   
    36    20    35 1   
@<TRIPOS>SUBSTRUCTURE
     1 JET         1 TEMP              0 ****  ****    0 ROOT
