@<TRIPOS>MOLECULE
JEU
   54    57     1     0     0
SMALL
No Charge or Current Charge


@<TRIPOS>ATOM
      1 C10        104.4410   113.1500    70.9820 ca         1 JEU      -0.057000
      2 C11        105.8150   113.1030    71.2620 ca         1 JEU      -0.129000
      3 C12        106.2680   113.0790    72.5940 ca         1 JEU      -0.064000
      4 C13        105.3570   113.1010    73.6810 ca         1 JEU      -0.140500
      5 C14        105.8720   113.1060    75.0680 cc         1 JEU       0.630500
      6 C17        107.2300   112.8610    76.6150 cd         1 JEU       0.559500
      7 C19        108.4060   112.5830    77.4610 ca         1 JEU      -0.214500
      8 C20        108.3570   112.7830    78.8560 ca         1 JEU      -0.002000
      9 C02        100.5490   111.9010    68.6220 c3         1 JEU       0.158600
     10 C03        101.1510   112.9360    69.6110 c3         1 JEU       0.156800
     11 C05        102.0170   113.2260    71.9560 c5         1 JEU       0.221800
     12 C06        101.6340   112.6590    73.3690 c5         1 JEU      -0.093400
     13 C07        102.7940   113.1220    74.3220 c5         1 JEU      -0.032100
     14 C08        103.9700   113.1290    73.3660 ca         1 JEU      -0.044300
     15 C09        103.5280   113.1590    72.0490 ca         1 JEU      -0.092300
     16 C21        109.4820   112.5150    79.6530 ca         1 JEU      -0.226000
     17 C22        110.6790   112.0480    79.0700 ca         1 JEU       0.227100
     18 C23        110.7290   111.8390    77.6780 ca         1 JEU      -0.081000
     19 C24        109.6010   112.1070    76.8800 ca         1 JEU       0.023000
     20 C25        111.9280   111.3560    77.0530 cg         1 JEU       0.338000
     21 C28        111.9680   112.1550    81.2020 c3         1 JEU       0.181300
     22 C29        113.1820   111.3740    81.7370 c3         1 JEU      -0.109600
     23 C30        112.1900   113.6830    81.2580 c3         1 JEU      -0.109600
     24 N04        101.3880   112.3360    70.9480 n7         1 JEU      -0.869400
     25 N15        105.1690   113.4890    76.1240 nd         1 JEU      -0.385300
     26 N18        107.1570   112.7100    75.3140 nc         1 JEU      -0.728000
     27 N26        112.8960   110.9630    76.5300 n1         1 JEU      -0.450000
     28 O01        100.3080   112.5050    67.3410 oh         1 JEU      -0.664000
     29 O16        106.0840   113.3240    77.1850 os         1 JEU      -0.093700
     30 O27        111.8070   111.7660    79.8260 os         1 JEU      -0.338100
     31 H1         104.0990   113.1750    69.9520 ha         1 JEU       0.122000
     32 H2         106.5330   113.0920    70.4450 ha         1 JEU       0.117000
     33 H3         107.3420   113.0570    72.7730 ha         1 JEU       0.134000
     34 H4         107.4470   113.1440    79.3340 ha         1 JEU       0.133000
     35 H5          99.6100   111.5110    69.0380 h1         1 JEU       0.024700
     36 H6         101.2460   111.0590    68.5180 h1         1 JEU       0.024700
     37 H7         102.0840   113.3200    69.1820 h1         1 JEU       0.043200
     38 H8         100.4570   113.7840    69.6960 h1         1 JEU       0.043200
     39 H9         101.6780   114.2670    71.8520 h1         1 JEU       0.041700
     40 H10        100.6530   113.0110    73.7070 hc         1 JEU       0.052700
     41 H11        101.5910   111.5630    73.3560 hc         1 JEU       0.052700
     42 H12        102.9120   112.4260    75.1600 hc         1 JEU       0.067200
     43 H13        102.6050   114.1190    74.7360 hc         1 JEU       0.067200
     44 H14        109.3990   112.6730    80.7230 ha         1 JEU       0.129000
     45 H15        109.6550   111.9450    75.8040 ha         1 JEU       0.152000
     46 H16        111.0930   111.8750    81.8030 h1         1 JEU       0.046700
     47 H17        113.3680   111.6260    82.7880 hc         1 JEU       0.052533
     48 H18        113.0010   110.2940    81.6740 hc         1 JEU       0.052533
     49 H19        114.0840   111.6090    81.1600 hc         1 JEU       0.052533
     50 H20        112.3870   114.0020    82.2880 hc         1 JEU       0.052533
     51 H21        113.0470   113.9740    80.6390 hc         1 JEU       0.052533
     52 H22        111.3080   114.2280    80.9030 hc         1 JEU       0.052533
     53 H23        100.4720   112.0470    71.3110 hn         1 JEU       0.415000
     54 H25         99.9360   111.8040    66.7610 ho         1 JEU       0.446000
@<TRIPOS>BOND
     1     1     2 ar  
     2     1    15 ar  
     3     1    31 1   
     4     2     3 ar  
     5     2    32 1   
     6     3     4 ar  
     7     3    33 1   
     8     4     5 1   
     9     4    14 ar  
    10     5    25 2   
    11     5    26 1   
    12     6     7 1   
    13     6    26 2   
    14     6    29 1   
    15     7     8 ar  
    16     7    19 ar  
    17     8    16 ar  
    18     8    34 1   
    19     9    10 1   
    20     9    28 1   
    21     9    35 1   
    22     9    36 1   
    23    10    24 1   
    24    10    37 1   
    25    10    38 1   
    26    11    12 1   
    27    11    15 1   
    28    11    24 1   
    29    11    39 1   
    30    12    13 1   
    31    12    40 1   
    32    12    41 1   
    33    13    14 1   
    34    13    42 1   
    35    13    43 1   
    36    14    15 ar  
    37    16    17 ar  
    38    16    44 1   
    39    17    18 ar  
    40    17    30 1   
    41    18    19 ar  
    42    18    20 1   
    43    19    45 1   
    44    20    27 3   
    45    21    22 1   
    46    21    23 1   
    47    21    30 1   
    48    21    46 1   
    49    22    47 1   
    50    22    48 1   
    51    22    49 1   
    52    23    50 1   
    53    23    51 1   
    54    23    52 1   
    55    24    53 1   
    56    25    29 1   
    57    28    54 1   
@<TRIPOS>SUBSTRUCTURE
     1 JEU         1 TEMP              0 ****  ****    0 ROOT
