@<TRIPOS>MOLECULE
JEU
   54    57     1     0     0
SMALL
bcc


@<TRIPOS>ATOM
      1 C10        104.4220   112.7720    70.9960 ca         1 JEU      -0.075000
      2 C11        105.7790   112.6300    71.2650 ca         1 JEU      -0.147000
      3 C12        106.2420   112.6560    72.5700 ca         1 JEU      -0.082000
      4 C13        105.3570   112.8100    73.6410 ca         1 JEU      -0.140500
      5 C14        105.9000   112.8400    74.9970 cc         1 JEU       0.630500
      6 C17        107.2710   112.6980    76.5550 cd         1 JEU       0.603900
      7 C19        108.4220   112.5190    77.4190 ca         1 JEU      -0.214500
      8 C20        108.3580   112.7580    78.7940 ca         1 JEU      -0.020000
      9 C02        100.6120   112.2430    68.6550 c3         1 JEU       0.135400
     10 C03        101.1130   113.1580    69.7560 c3         1 JEU       0.156800
     11 C05        102.0410   113.1190    72.0100 c5         1 JEU       0.221800
     12 C06        101.6330   112.6790    73.4180 c5         1 JEU      -0.093400
     13 C07        102.8250   113.0430    74.3110 c5         1 JEU      -0.032100
     14 C08        103.9930   112.9290    73.3690 ca         1 JEU      -0.044300
     15 C09        103.5410   112.9290    72.0520 ca         1 JEU      -0.092300
     16 C21        109.4630   112.5940    79.6050 ca         1 JEU      -0.244000
     17 C22        110.6770   112.1760    79.0580 ca         1 JEU       0.227100
     18 C23        110.7390   111.9330    77.6720 ca         1 JEU      -0.081000
     19 C24        109.6250   112.1030    76.8640 ca         1 JEU       0.005000
     20 C25        111.9750   111.5060    77.1080 cg         1 JEU       0.248800
     21 C28        111.9220   112.2910    81.1250 c3         1 JEU       0.158100
     22 C29        113.1270   111.5210    81.6230 c3         1 JEU      -0.109600
     23 C30        112.0780   113.7890    81.3050 c3         1 JEU      -0.109600
     24 N04        101.3670   112.3840    70.9580 n7         1 JEU      -0.814200
     25 N15        105.2130   113.1720    76.0530 nd         1 JEU      -0.385300
     26 N18        107.2020   112.5370    75.2740 nc         1 JEU      -0.728000
     27 N26        112.9720   111.1610    76.6450 n1         1 JEU      -0.360800
     28 O01        100.3510   113.0200    67.5070 oh         1 JEU      -0.601800
     29 O16        106.1130   113.0760    77.0780 os         1 JEU      -0.138100
     30 O27        111.7990   111.9670    79.7240 os         1 JEU      -0.314900
     31 H1         104.0700   112.7500    69.9720 ha         1 JEU       0.140000
     32 H2         106.4820   112.4990    70.4520 ha         1 JEU       0.135000
     33 H3         107.3010   112.5520    72.7630 ha         1 JEU       0.152000
     34 H4         107.4330   113.0820    79.2530 ha         1 JEU       0.151000
     35 H5          99.7100   111.7200    69.0020 h1         1 JEU       0.024700
     36 H6         101.3720   111.4750    68.4670 h1         1 JEU       0.024700
     37 H7         102.0430   113.6290    69.4300 h1         1 JEU       0.043200
     38 H8         100.3920   113.9730    69.9210 h1         1 JEU       0.043200
     39 H9         101.8440   114.2010    71.9200 h1         1 JEU       0.041700
     40 H10        100.6980   113.1330    73.7440 hc         1 JEU       0.052700
     41 H11        101.4990   111.5930    73.4190 hc         1 JEU       0.052700
     42 H12        102.9110   112.3930    75.1820 hc         1 JEU       0.067200
     43 H13        102.7370   114.0650    74.6930 hc         1 JEU       0.067200
     44 H14        109.3620   112.7900    80.6620 ha         1 JEU       0.147000
     45 H15        109.7020   111.9100    75.8020 ha         1 JEU       0.170000
     46 H16        111.0320   111.9330    81.6510 h1         1 JEU       0.046700
     47 H17        113.2530   111.7000    82.6900 hc         1 JEU       0.052533
     48 H18        113.0040   110.4480    81.4750 hc         1 JEU       0.052533
     49 H19        114.0380   111.8420    81.1160 hc         1 JEU       0.052533
     50 H20        112.1780   114.0180    82.3660 hc         1 JEU       0.052533
     51 H21        112.9730   114.1470    80.7950 hc         1 JEU       0.052533
     52 H22        111.2200   114.3480    80.9300 hc         1 JEU       0.052533
     53 H23        100.4860   112.0340    71.3130 hn         1 JEU       0.359800
     54 H25        100.0910   112.4270    66.7960 ho         1 JEU       0.407000
@<TRIPOS>BOND
     1     1     2 ar  
     2     1    15 ar  
     3     1    31 1   
     4     2     3 ar  
     5     2    32 1   
     6     3     4 ar  
     7     3    33 1   
     8     4     5 1   
     9     4    14 ar  
    10     5    25 2   
    11     5    26 1   
    12     6     7 1   
    13     6    26 2   
    14     6    29 1   
    15     7     8 ar  
    16     7    19 ar  
    17     8    16 ar  
    18     8    34 1   
    19     9    10 1   
    20     9    28 1   
    21     9    35 1   
    22     9    36 1   
    23    10    24 1   
    24    10    37 1   
    25    10    38 1   
    26    11    12 1   
    27    11    15 1   
    28    11    24 1   
    29    11    39 1   
    30    12    13 1   
    31    12    40 1   
    32    12    41 1   
    33    13    14 1   
    34    13    42 1   
    35    13    43 1   
    36    14    15 ar  
    37    16    17 ar  
    38    16    44 1   
    39    17    18 ar  
    40    17    30 1   
    41    18    19 ar  
    42    18    20 1   
    43    19    45 1   
    44    20    27 3   
    45    21    22 1   
    46    21    23 1   
    47    21    30 1   
    48    21    46 1   
    49    22    47 1   
    50    22    48 1   
    51    22    49 1   
    52    23    50 1   
    53    23    51 1   
    54    23    52 1   
    55    24    53 1   
    56    25    29 1   
    57    28    54 1   
@<TRIPOS>SUBSTRUCTURE
     1 JEU         1 TEMP              0 ****  ****    0 ROOT
