@<TRIPOS>MOLECULE
JEV
   40    42     1     0     0
SMALL
No Charge or Current Charge


@<TRIPOS>ATOM
      1 C4          -2.2180     0.0420    -1.1240 c3         1 JEV       0.103000
      2 C3          -4.0000     0.0810     0.6570 c          1 JEV       0.596100
      3 C2          -5.0570     0.9700     1.3220 c3         1 JEV      -0.158400
      4 O2          -3.7750    -1.0620     1.0270 o          1 JEV      -0.603100
      5 C1          -6.4890     0.5440     0.9310 c3         1 JEV      -0.077100
      6 O1           4.2450     1.6740     0.8260 os         1 JEV      -0.335100
      7 C7           0.2430    -2.1060    -1.3660 c5         1 JEV      -0.077400
      8 C8           0.9320    -2.7680    -0.1120 c5         1 JEV      -0.027100
      9 C9           1.9310    -1.6970     0.2360 ca         1 JEV      -0.117300
     10 C10          3.0800    -1.8400     1.0420 ca         1 JEV      -0.066000
     11 C11          3.9010    -0.7130     1.2680 ca         1 JEV      -0.137000
     12 C12          3.5440     0.5110     0.6740 ca         1 JEV       0.121100
     13 C15          3.6600     2.5930    -0.1610 c5         1 JEV       0.148600
     14 C14          2.2430     2.0440    -0.5750 c5         1 JEV      -0.050100
     15 C13          2.4140     0.6370    -0.1020 ca         1 JEV      -0.157300
     16 C16          1.5940    -0.4780    -0.3280 ca         1 JEV      -0.036300
     17 C6           0.3150    -0.5440    -1.1260 c5         1 JEV      -0.013400
     18 C5          -0.8850     0.0550    -0.3480 c3         1 JEV      -0.095400
     19 N1          -3.3010     0.6770    -0.3700 ns         1 JEV      -0.510900
     20 H1          -2.0930     0.5810    -2.0720 h1         1 JEV       0.052200
     21 H2          -2.5080    -0.9910    -1.3600 h1         1 JEV       0.052200
     22 H3          -4.9580     0.8830     2.4100 hc         1 JEV       0.053200
     23 H4          -4.9170     2.0150     1.0200 hc         1 JEV       0.053200
     24 H5          -6.6310     0.6130    -0.1550 hc         1 JEV       0.042700
     25 H6          -6.6840    -0.4910     1.2390 hc         1 JEV       0.042700
     26 H7          -7.2280     1.1910     1.4170 hc         1 JEV       0.042700
     27 H8           0.8040    -2.3650    -2.2720 hc         1 JEV       0.050200
     28 H9          -0.7760    -2.4770    -1.5220 hc         1 JEV       0.050200
     29 H10          0.2190    -2.9330     0.7030 hc         1 JEV       0.054700
     30 H11          1.3960    -3.7320    -0.3540 hc         1 JEV       0.054700
     31 H12          3.3290    -2.8020     1.4850 ha         1 JEV       0.116000
     32 H13          4.7920    -0.7870     1.8860 ha         1 JEV       0.129000
     33 H14          3.6150     3.6080     0.2560 h1         1 JEV       0.055200
     34 H15          4.3260     2.6160    -1.0340 h1         1 JEV       0.055200
     35 H16          1.4340     2.5640    -0.0500 hc         1 JEV       0.059700
     36 H17          2.0630     2.1240    -1.6530 hc         1 JEV       0.059700
     37 H18          0.3990    -0.0020    -2.0750 hc         1 JEV       0.055700
     38 H19         -0.6570     1.0930    -0.0790 hc         1 JEV       0.052700
     39 H20         -1.0160    -0.4840     0.5980 hc         1 JEV       0.052700
     40 H21         -3.5570     1.6290    -0.6020 hn         1 JEV       0.308500
@<TRIPOS>BOND
     1     1    18 1   
     2     1    19 1   
     3     1    20 1   
     4     1    21 1   
     5     2     3 1   
     6     2     4 2   
     7     2    19 1   
     8     3     5 1   
     9     3    22 1   
    10     3    23 1   
    11     5    24 1   
    12     5    25 1   
    13     5    26 1   
    14     6    12 1   
    15     6    13 1   
    16     7     8 1   
    17     7    17 1   
    18     7    27 1   
    19     7    28 1   
    20     8     9 1   
    21     8    29 1   
    22     8    30 1   
    23     9    10 ar  
    24     9    16 ar  
    25    10    11 ar  
    26    10    31 1   
    27    11    12 ar  
    28    11    32 1   
    29    12    15 ar  
    30    13    14 1   
    31    13    33 1   
    32    13    34 1   
    33    14    15 1   
    34    14    35 1   
    35    14    36 1   
    36    15    16 ar  
    37    16    17 1   
    38    17    18 1   
    39    17    37 1   
    40    18    38 1   
    41    18    39 1   
    42    19    40 1   
@<TRIPOS>SUBSTRUCTURE
     1 JEV         1 TEMP              0 ****  ****    0 ROOT
