@<TRIPOS>MOLECULE
JEV
   40    42     1     0     0
SMALL
abcg2


@<TRIPOS>ATOM
      1 C4          -2.1190     0.2700    -1.2560 c3         1 JEV       0.103000
      2 C3          -4.0500     0.1310     0.2530 c          1 JEV       0.596100
      3 C2          -5.0800     0.9410     1.0140 c3         1 JEV      -0.158400
      4 O2          -3.9540    -1.0830     0.3760 o          1 JEV      -0.603100
      5 C1          -6.3480     0.1590     1.3140 c3         1 JEV      -0.077100
      6 O1           4.2430     1.5930     0.8190 os         1 JEV      -0.335100
      7 C7           0.1070    -2.0560    -1.2810 c5         1 JEV      -0.077400
      8 C8           0.7730    -2.6810    -0.0440 c5         1 JEV      -0.027100
      9 C9           1.8290    -1.6700     0.3140 ca         1 JEV      -0.117300
     10 C10          2.9330    -1.8070     1.1410 ca         1 JEV      -0.066000
     11 C11          3.7970    -0.7300     1.3480 ca         1 JEV      -0.137000
     12 C12          3.5040     0.4650     0.7130 ca         1 JEV       0.121100
     13 C15          3.7620     2.5280    -0.1650 c5         1 JEV       0.148600
     14 C14          2.3650     2.0450    -0.5870 c5         1 JEV      -0.050100
     15 C13          2.3960     0.6220    -0.1120 ca         1 JEV      -0.157300
     16 C16          1.5560    -0.4520    -0.3140 ca         1 JEV      -0.036300
     17 C6           0.2910    -0.5310    -1.1250 c5         1 JEV      -0.013400
     18 C5          -0.8700     0.1450    -0.3880 c3         1 JEV      -0.095400
     19 N1          -3.2430     0.8450    -0.5510 ns         1 JEV      -0.510900
     20 H1          -1.9060     0.9050    -2.1170 h1         1 JEV       0.052200
     21 H2          -2.4140    -0.7040    -1.6470 h1         1 JEV       0.052200
     22 H3          -4.6120     1.2590     1.9520 hc         1 JEV       0.053200
     23 H4          -5.3150     1.8600     0.4720 hc         1 JEV       0.053200
     24 H5          -6.8570    -0.1440     0.3980 hc         1 JEV       0.042700
     25 H6          -6.1350    -0.7390     1.8910 hc         1 JEV       0.042700
     26 H7          -7.0410     0.7710     1.8910 hc         1 JEV       0.042700
     27 H8           0.6290    -2.3900    -2.1800 hc         1 JEV       0.050200
     28 H9          -0.9380    -2.3500    -1.3900 hc         1 JEV       0.050200
     29 H10          0.0540    -2.7930     0.7740 hc         1 JEV       0.054700
     30 H11          1.1750    -3.6750    -0.2460 hc         1 JEV       0.054700
     31 H12          3.1420    -2.7540     1.6240 ha         1 JEV       0.116000
     32 H13          4.6700    -0.8290     1.9800 ha         1 JEV       0.129000
     33 H14          3.7630     3.5230     0.2770 h1         1 JEV       0.055200
     34 H15          4.4490     2.5220    -1.0140 h1         1 JEV       0.055200
     35 H16          1.5700     2.6090    -0.0930 hc         1 JEV       0.059700
     36 H17          2.2140     2.1430    -1.6620 hc         1 JEV       0.059700
     37 H18          0.4160    -0.0480    -2.1000 hc         1 JEV       0.055700
     38 H19         -0.5670     1.1450    -0.0650 hc         1 JEV       0.052700
     39 H20         -1.1080    -0.4170     0.5200 hc         1 JEV       0.052700
     40 H21         -3.3530     1.8450    -0.5780 hn         1 JEV       0.308500
@<TRIPOS>BOND
     1     1    18 1   
     2     1    19 1   
     3     1    20 1   
     4     1    21 1   
     5     2     3 1   
     6     2     4 2   
     7     2    19 1   
     8     3     5 1   
     9     3    22 1   
    10     3    23 1   
    11     5    24 1   
    12     5    25 1   
    13     5    26 1   
    14     6    12 1   
    15     6    13 1   
    16     7     8 1   
    17     7    17 1   
    18     7    27 1   
    19     7    28 1   
    20     8     9 1   
    21     8    29 1   
    22     8    30 1   
    23     9    10 ar  
    24     9    16 ar  
    25    10    11 ar  
    26    10    31 1   
    27    11    12 ar  
    28    11    32 1   
    29    12    15 ar  
    30    13    14 1   
    31    13    33 1   
    32    13    34 1   
    33    14    15 1   
    34    14    35 1   
    35    14    36 1   
    36    15    16 ar  
    37    16    17 1   
    38    17    18 1   
    39    17    37 1   
    40    18    38 1   
    41    18    39 1   
    42    19    40 1   
@<TRIPOS>SUBSTRUCTURE
     1 JEV         1 TEMP              0 ****  ****    0 ROOT
