@<TRIPOS>MOLECULE
JEW
   39    42     1     0     0
SMALL
No Charge or Current Charge


@<TRIPOS>ATOM
      1 C13         -1.8870    -0.8850     0.1050 ca         1 JEW      -0.109500
      2 C15         -1.0070    -3.1010     0.7400 ca         1 JEW      -0.070000
      3 C17          1.4420    -3.4650     0.0680 cc         1 JEW      -0.236200
      4 C20         -4.2870    -0.1110     0.5770 cc         1 JEW      -0.277000
      5 C21         -4.9930     1.0110     0.3370 cd         1 JEW       0.206000
      6 N01          4.8580    -0.9890     1.0850 n1         1 JEW      -0.449000
      7 C03          3.3300     1.0350     0.4750 ca         1 JEW       0.006000
      8 C04          2.4430     1.0100    -0.6350 ca         1 JEW      -0.072300
      9 C05          1.6880     2.1640    -0.9330 ca         1 JEW      -0.100000
     10 C06          1.7870     3.3150    -0.1340 ca         1 JEW      -0.087000
     11 C07          2.6520     3.3300     0.9700 ca         1 JEW      -0.106000
     12 C08          3.4230     2.1960     1.2700 ca         1 JEW      -0.074000
     13 N10          1.7220    -1.4080    -0.8650 na         1 JEW      -0.098700
     14 C11          0.4170    -1.5070    -0.3930 ca         1 JEW      -0.049200
     15 C12         -0.6200    -0.5610    -0.4510 ca         1 JEW      -0.095000
     16 C14         -2.0620    -2.1660     0.7010 ca         1 JEW      -0.121000
     17 C16          0.2190    -2.7310     0.1800 ca         1 JEW      -0.088800
     18 C18          2.3530    -2.6420    -0.5830 cd         1 JEW      -0.150100
     19 C19         -2.9910     0.0960     0.0580 cc         1 JEW       0.342500
     20 N22         -4.1180     1.8710    -0.3200 na         1 JEW      -0.038200
     21 N23         -2.8560     1.2950    -0.4950 nd         1 JEW      -0.534800
     22 H1          -1.1430    -4.0810     1.1910 ha         1 JEW       0.114000
     23 H2           1.6380    -4.4770     0.4170 ha         1 JEW       0.207000
     24 H3          -4.6460    -1.0020     1.0730 ha         1 JEW       0.145000
     25 H4           1.0150     2.1720    -1.7870 ha         1 JEW       0.122000
     26 H5           1.1940     4.1950    -0.3720 ha         1 JEW       0.120000
     27 H6           2.7300     4.2220     1.5880 ha         1 JEW       0.121000
     28 H7           4.0990     2.2220     2.1230 ha         1 JEW       0.127000
     29 H8           1.6510     0.0210    -2.3930 h1         1 JEW       0.064700
     30 H9           3.2750    -0.4910    -1.9420 h1         1 JEW       0.064700
     31 H10         -0.4510     0.4030    -0.9190 ha         1 JEW       0.129000
     32 H11         -3.0150    -2.4540     1.1360 ha         1 JEW       0.110000
     33 H12          3.3880    -2.8350    -0.8550 h4         1 JEW       0.213000
     34 H13         -4.3340     2.8080    -0.6470 hn         1 JEW       0.366000
     35 H14         -6.8640     0.6850     1.1730 hn         1 JEW       0.449000
     36 H15         -6.6590     2.2600     0.4510 hn         1 JEW       0.449000
     37 C09          2.2910    -0.2220    -1.5370 c3         1 JEW       0.126900
     38 N24         -6.2860     1.3280     0.6320 nv         1 JEW      -1.050000
     39 C02          4.1660    -0.0900     0.8100 cg         1 JEW       0.324000
@<TRIPOS>BOND
     1     1    15 ar  
     2     1    16 ar  
     3     1    19 1   
     4     2    16 ar  
     5     2    17 ar  
     6     2    22 1   
     7     3    17 1   
     8     3    18 2   
     9     3    23 1   
    10     4     5 2   
    11     4    19 1   
    12     4    24 1   
    13     5    20 1   
    14     5    38 1   
    15     6    39 3   
    16     7     8 ar  
    17     7    12 ar  
    18     7    39 1   
    19     8     9 ar  
    20     8    37 1   
    21     9    10 ar  
    22     9    25 1   
    23    10    11 ar  
    24    10    26 1   
    25    11    12 ar  
    26    11    27 1   
    27    12    28 1   
    28    13    14 1   
    29    13    18 1   
    30    13    37 1   
    31    14    15 ar  
    32    14    17 ar  
    33    15    31 1   
    34    16    32 1   
    35    18    33 1   
    36    19    21 2   
    37    20    21 1   
    38    20    34 1   
    39    29    37 1   
    40    30    37 1   
    41    35    38 1   
    42    36    38 1   
@<TRIPOS>SUBSTRUCTURE
     1 JEW         1 TEMP              0 ****  ****    0 ROOT
