@<TRIPOS>MOLECULE
JEW
   39    42     1     0     0
SMALL
bcc


@<TRIPOS>ATOM
      1 C13         -1.8060    -0.9170     0.1210 ca         1 JEW      -0.109500
      2 C15         -0.9640    -3.1390     0.6590 ca         1 JEW      -0.088000
      3 C17          1.5190    -3.4770    -0.0540 cc         1 JEW      -0.186200
      4 C20         -4.2110    -0.1340     0.6660 cc         1 JEW      -0.360300
      5 C21         -4.8680     1.0500     0.3880 cd         1 JEW       0.118300
      6 N01          4.3830    -1.0060     1.4170 n1         1 JEW      -0.359800
      7 C03          3.0570     1.0320     0.5540 ca         1 JEW       0.006000
      8 C04          2.3670     0.9920    -0.6640 ca         1 JEW      -0.072300
      9 C05          1.7260     2.1480    -1.0860 ca         1 JEW      -0.118000
     10 C06          1.7560     3.3080    -0.3240 ca         1 JEW      -0.105000
     11 C07          2.4340     3.3310     0.8860 ca         1 JEW      -0.124000
     12 C08          3.0890     2.1930     1.3260 ca         1 JEW      -0.092000
     13 N10          1.7430    -1.3910    -0.8500 na         1 JEW      -0.069400
     14 C11          0.4530    -1.4880    -0.3910 ca         1 JEW      -0.049200
     15 C12         -0.5740    -0.5520    -0.4060 ca         1 JEW      -0.113000
     16 C14         -1.9840    -2.2110     0.6530 ca         1 JEW      -0.139000
     17 C16          0.2800    -2.7900     0.1270 ca         1 JEW      -0.088800
     18 C18          2.3680    -2.5960    -0.6510 cd         1 JEW      -0.100100
     19 C19         -2.9200     0.0370     0.1170 cc         1 JEW       0.407800
     20 N22         -3.9830     1.8190    -0.2720 na         1 JEW      -0.038600
     21 N23         -2.7930     1.2250    -0.4460 nd         1 JEW      -0.534800
     22 H1          -1.1320    -4.1290     1.0670 ha         1 JEW       0.132000
     23 H2           1.7520    -4.4920     0.2260 ha         1 JEW       0.157000
     24 H3          -4.6150    -0.9820     1.1940 ha         1 JEW       0.163000
     25 H4           1.1880     2.1380    -2.0260 ha         1 JEW       0.140000
     26 H5           1.2440     4.1930    -0.6750 ha         1 JEW       0.138000
     27 H6           2.4590     4.2310     1.4850 ha         1 JEW       0.139000
     28 H7           3.6300     2.2000     2.2620 ha         1 JEW       0.145000
     29 H8           1.7540    -0.0290    -2.4290 h1         1 JEW       0.064700
     30 H9           3.3240    -0.5300    -1.8380 h1         1 JEW       0.064700
     31 H10         -0.4360     0.4420    -0.8110 ha         1 JEW       0.147000
     32 H11         -2.9460    -2.4920     1.0610 ha         1 JEW       0.128000
     33 H12          3.3950    -2.7280    -0.9540 h4         1 JEW       0.163000
     34 H13         -4.1370     2.7450    -0.6380 hn         1 JEW       0.315700
     35 H14         -6.6200     0.9140     1.3420 hn         1 JEW       0.393800
     36 H15         -6.3020     2.4280     0.7500 hn         1 JEW       0.393800
     37 C09          2.3180    -0.2490    -1.5200 c3         1 JEW       0.097600
     38 N24         -6.1660     1.4380     0.6120 nv         1 JEW      -0.801200
     39 C02          3.7760    -0.1080     1.0240 cg         1 JEW       0.234800
@<TRIPOS>BOND
     1     1    15 ar  
     2     1    16 ar  
     3     1    19 1   
     4     2    16 ar  
     5     2    17 ar  
     6     2    22 1   
     7     3    17 1   
     8     3    18 2   
     9     3    23 1   
    10     4     5 2   
    11     4    19 1   
    12     4    24 1   
    13     5    20 1   
    14     5    38 1   
    15     6    39 3   
    16     7     8 ar  
    17     7    12 ar  
    18     7    39 1   
    19     8     9 ar  
    20     8    37 1   
    21     9    10 ar  
    22     9    25 1   
    23    10    11 ar  
    24    10    26 1   
    25    11    12 ar  
    26    11    27 1   
    27    12    28 1   
    28    13    14 1   
    29    13    18 1   
    30    13    37 1   
    31    14    15 ar  
    32    14    17 ar  
    33    15    31 1   
    34    16    32 1   
    35    18    33 1   
    36    19    21 2   
    37    20    21 1   
    38    20    34 1   
    39    29    37 1   
    40    30    37 1   
    41    35    38 1   
    42    36    38 1   
@<TRIPOS>SUBSTRUCTURE
     1 JEW         1 TEMP              0 ****  ****    0 ROOT
