@<TRIPOS>MOLECULE
JEX
   40    43     1     0     0
SMALL
abcg2


@<TRIPOS>ATOM
      1 C02        104.6100   103.3450    76.7600 c3         1 JEX       0.390300
      2 C03        105.8430   102.5150    76.8680 cc         1 JEX      -0.363300
      3 C05        107.9460   101.3850    76.3790 cc         1 JEX      -0.311500
      4 C06        107.5680   101.2340    77.6840 cd         1 JEX      -0.072000
      5 C07        106.3430   101.8820    77.9790 cd         1 JEX       0.012000
      6 C08        105.7410   101.8800    79.3240 ca         1 JEX      -0.046000
      7 C09        106.5030   102.3040    80.4130 ca         1 JEX      -0.086000
      8 C10        105.9560   102.3220    81.6870 ca         1 JEX      -0.109500
      9 C11        104.6450   101.9090    81.8890 ca         1 JEX      -0.095000
     10 C12        103.8890   101.4680    80.8120 ca         1 JEX      -0.109500
     11 C13        104.4330   101.4510    79.5370 ca         1 JEX      -0.086000
     12 C14        109.1270   100.8890    75.7240 cc         1 JEX       0.575500
     13 C17        110.6820   100.4350    74.4340 cd         1 JEX       0.620500
     14 C19        111.5070   100.4070    73.2260 ca         1 JEX      -0.151500
     15 C20        111.0080   100.9480    72.0460 ca         1 JEX      -0.036000
     16 C21        111.7810   100.9360    70.8950 ca         1 JEX      -0.127000
     17 C22        113.0530   100.3930    70.9160 ca         1 JEX      -0.041000
     18 C23        113.5560    99.8550    72.0990 ca         1 JEX      -0.207300
     19 C24        112.7890    99.8570    73.2510 ca         1 JEX      -0.021000
     20 C25        114.9390    99.2790    72.0810 c3         1 JEX       0.359300
     21 F01        104.6680   104.1320    75.6800 f          1 JEX      -0.104667
     22 F26        115.0240    98.2430    71.2360 f          1 JEX      -0.111667
     23 F27        115.3360    98.8430    73.2780 f          1 JEX      -0.111667
     24 F28        115.8410   100.1800    71.6690 f          1 JEX      -0.111667
     25 F29        104.4450   104.1260    77.8270 f          1 JEX      -0.104667
     26 F30        103.5020   102.6050    76.6370 f          1 JEX      -0.104667
     27 N16        111.0100    99.8400    75.5430 nc         1 JEX      -0.368300
     28 N18        109.4970   101.1050    74.5050 nd         1 JEX      -0.726000
     29 O15        109.9860   100.1380    76.3970 os         1 JEX      -0.069700
     30 S04        106.8310   102.3260    75.4840 ss         1 JEX       0.419000
     31 H1         108.1330   100.6750    78.4170 ha         1 JEX       0.158000
     32 H2         107.5220   102.6380    80.2600 ha         1 JEX       0.119500
     33 H3         106.5540   102.6640    82.5220 ha         1 JEX       0.117500
     34 H4         104.2180   101.9270    82.8830 ha         1 JEX       0.116000
     35 H5         102.8710   101.1320    80.9640 ha         1 JEX       0.117500
     36 H6         103.8400   101.0800    78.7110 ha         1 JEX       0.119500
     37 H7         110.0160   101.3780    72.0250 ha         1 JEX       0.141000
     38 H8         111.3890   101.3550    69.9780 ha         1 JEX       0.127000
     39 H9         113.6470   100.3930    70.0100 ha         1 JEX       0.132000
     40 H10        113.1740    99.4440    74.1740 ha         1 JEX       0.149000
@<TRIPOS>BOND
     1     1     2 1   
     2     1    21 1   
     3     1    25 1   
     4     1    26 1   
     5     2     5 2   
     6     2    30 1   
     7     3     4 2   
     8     3    12 1   
     9     3    30 1   
    10     4     5 1   
    11     4    31 1   
    12     5     6 1   
    13     6     7 ar  
    14     6    11 ar  
    15     7     8 ar  
    16     7    32 1   
    17     8     9 ar  
    18     8    33 1   
    19     9    10 ar  
    20     9    34 1   
    21    10    11 ar  
    22    10    35 1   
    23    11    36 1   
    24    12    28 2   
    25    12    29 1   
    26    13    14 1   
    27    13    27 2   
    28    13    28 1   
    29    14    15 ar  
    30    14    19 ar  
    31    15    16 ar  
    32    15    37 1   
    33    16    17 ar  
    34    16    38 1   
    35    17    18 ar  
    36    17    39 1   
    37    18    19 ar  
    38    18    20 1   
    39    19    40 1   
    40    20    22 1   
    41    20    23 1   
    42    20    24 1   
    43    27    29 1   
@<TRIPOS>SUBSTRUCTURE
     1 JEX         1 TEMP              0 ****  ****    0 ROOT
