@<TRIPOS>MOLECULE
JEX
   40    43     1     0     0
SMALL
No Charge or Current Charge


@<TRIPOS>ATOM
      1 C02        104.2790   103.1890    76.6430 c3         1 JEX       0.390300
      2 C03        105.6160   102.4970    76.8010 cc         1 JEX      -0.363300
      3 C05        107.8960   101.6200    76.2790 cc         1 JEX      -0.311500
      4 C06        107.5850   101.5450    77.6120 cd         1 JEX      -0.072000
      5 C07        106.2890   102.0540    77.9380 cd         1 JEX       0.012000
      6 C08        105.7560   101.9600    79.3230 ca         1 JEX      -0.046000
      7 C09        106.6490   102.0270    80.4180 ca         1 JEX      -0.086000
      8 C10        106.1830   101.9300    81.7410 ca         1 JEX      -0.109500
      9 C11        104.8150   101.7500    81.9940 ca         1 JEX      -0.095000
     10 C12        103.9180   101.6600    80.9210 ca         1 JEX      -0.109500
     11 C13        104.3840   101.7600    79.5980 ca         1 JEX      -0.086000
     12 C14        109.1240   101.1730    75.7050 cc         1 JEX       0.575500
     13 C17        110.7250   100.6670    74.4490 cd         1 JEX       0.620500
     14 C19        111.5310   100.5010    73.2190 ca         1 JEX      -0.151500
     15 C20        111.0210   100.9080    71.9660 ca         1 JEX      -0.036000
     16 C21        111.7880   100.7550    70.8010 ca         1 JEX      -0.127000
     17 C22        113.0720   100.1920    70.8650 ca         1 JEX      -0.041000
     18 C23        113.6000    99.7690    72.1030 ca         1 JEX      -0.207300
     19 C24        112.8270    99.9340    73.2730 ca         1 JEX      -0.021000
     20 C25        115.0040    99.1610    72.1930 c3         1 JEX       0.359300
     21 F01        104.2640   104.0040    75.5630 f          1 JEX      -0.104667
     22 F26        115.4350    98.6610    71.0120 f          1 JEX      -0.111667
     23 F27        115.0600    98.1450    73.0840 f          1 JEX      -0.111667
     24 F28        115.9130   100.0810    72.5870 f          1 JEX      -0.111667
     25 F29        103.9710   103.9660    77.7060 f          1 JEX      -0.104667
     26 F30        103.2740   102.3020    76.4720 f          1 JEX      -0.104667
     27 N16        111.1570   100.3030    75.6470 nc         1 JEX      -0.368300
     28 N18        109.4620   101.2150    74.4380 nd         1 JEX      -0.726000
     29 O15        110.0890   100.6380    76.5050 os         1 JEX      -0.069700
     30 S04        106.5990   102.3050    75.3440 ss         1 JEX       0.419000
     31 H1         108.2540   101.1110    78.3490 ha         1 JEX       0.158000
     32 H2         107.7110   102.1870    80.2550 ha         1 JEX       0.119500
     33 H3         106.8840   101.9980    82.5700 ha         1 JEX       0.117500
     34 H4         104.4540   101.6730    83.0180 ha         1 JEX       0.116000
     35 H5         102.8580   101.5020    81.1110 ha         1 JEX       0.117500
     36 H6         103.6700   101.6370    78.7940 ha         1 JEX       0.119500
     37 H7         110.0280   101.3480    71.8880 ha         1 JEX       0.141000
     38 H8         111.3860   101.0770    69.8430 ha         1 JEX       0.127000
     39 H9         113.6500   100.0900    69.9480 ha         1 JEX       0.132000
     40 H10        113.2410    99.6200    74.2300 ha         1 JEX       0.149000
@<TRIPOS>BOND
     1     1     2 1   
     2     1    21 1   
     3     1    25 1   
     4     1    26 1   
     5     2     5 2   
     6     2    30 1   
     7     3     4 2   
     8     3    12 1   
     9     3    30 1   
    10     4     5 1   
    11     4    31 1   
    12     5     6 1   
    13     6     7 ar  
    14     6    11 ar  
    15     7     8 ar  
    16     7    32 1   
    17     8     9 ar  
    18     8    33 1   
    19     9    10 ar  
    20     9    34 1   
    21    10    11 ar  
    22    10    35 1   
    23    11    36 1   
    24    12    28 2   
    25    12    29 1   
    26    13    14 1   
    27    13    27 2   
    28    13    28 1   
    29    14    15 ar  
    30    14    19 ar  
    31    15    16 ar  
    32    15    37 1   
    33    16    17 ar  
    34    16    38 1   
    35    17    18 ar  
    36    17    39 1   
    37    18    19 ar  
    38    18    20 1   
    39    19    40 1   
    40    20    22 1   
    41    20    23 1   
    42    20    24 1   
    43    27    29 1   
@<TRIPOS>SUBSTRUCTURE
     1 JEX         1 TEMP              0 ****  ****    0 ROOT
