@<TRIPOS>MOLECULE
JEY
   43    45     1     0     0
SMALL
bcc


@<TRIPOS>ATOM
      1 C4          -0.8480     0.8110     0.9390 c3         1 JEY      -0.016200
      2 C3          -0.9840     1.8670    -0.1560 c3         1 JEY       0.102000
      3 C2          -1.9030     4.1270    -0.3780 c          1 JEY       0.664100
      4 O2          -1.3820     4.2920    -1.4750 o          1 JEY      -0.609100
      5 C1          -2.7560     5.1910     0.2670 c3         1 JEY      -0.179100
      6 N1          -1.7520     2.9960     0.3260 ns         1 JEY      -0.577900
      7 C10          3.6750     0.4010     0.0800 ca         1 JEY       0.111100
      8 C11          2.3590     0.6850     0.4110 ca         1 JEY      -0.123000
      9 C12          1.3870    -0.3040     0.2340 ca         1 JEY      -0.059800
     10 C13          5.9240     1.1710    -0.0370 c3         1 JEY       0.128700
     11 C14         -2.2410    -2.9330    -0.9610 ca         1 JEY      -0.114500
     12 C15         -3.4980    -3.5190    -0.9400 ca         1 JEY      -0.128500
     13 C16         -4.3120    -3.3870     0.1770 ca         1 JEY      -0.120000
     14 C17         -3.8570    -2.6730     1.2780 ca         1 JEY      -0.128500
     15 C18         -2.5980    -2.0920     1.2620 ca         1 JEY      -0.114500
     16 C19         -1.7780    -2.2070     0.1390 ca         1 JEY      -0.044800
     17 N2           0.6240    -2.3200    -0.3650 na         1 JEY      -0.167400
     18 C5          -0.0220    -0.3460     0.4830 cc         1 JEY      -0.134400
     19 C6          -0.4430    -1.6040     0.1140 cd         1 JEY       0.010700
     20 C7           1.7580    -1.5600    -0.2870 ca         1 JEY      -0.071200
     21 C8           3.0750    -1.8490    -0.6150 ca         1 JEY      -0.111000
     22 C9           4.0290    -0.8630    -0.4280 ca         1 JEY      -0.182000
     23 H1          -0.3930     1.2680     1.8240 hc         1 JEY       0.046200
     24 H2          -1.8440     0.4830     1.2380 hc         1 JEY       0.046200
     25 H3           0.0030     2.2090    -0.4750 h1         1 JEY       0.058200
     26 H4          -1.4660     1.4220    -1.0320 h1         1 JEY       0.058200
     27 H5          -3.1380     4.9100     1.2470 hc         1 JEY       0.057367
     28 H6          -2.1750     6.1060     0.3740 hc         1 JEY       0.057367
     29 H7          -3.6030     5.4190    -0.3800 hc         1 JEY       0.057367
     30 H8          -2.2330     2.9010     1.2050 hn         1 JEY       0.308500
     31 H9           2.0980     1.6600     0.8060 ha         1 JEY       0.149000
     32 H10          6.4570     2.0900     0.1940 h1         1 JEY       0.037367
     33 H11          6.3540     0.3610     0.5590 h1         1 JEY       0.037367
     34 H12          6.0700     0.9410    -1.0960 h1         1 JEY       0.037367
     35 H13         -1.6220    -3.0260    -1.8450 ha         1 JEY       0.136000
     36 H14         -3.8440    -4.0750    -1.8020 ha         1 JEY       0.133500
     37 H15         -5.2930    -3.8450     0.1940 ha         1 JEY       0.133000
     38 H16         -4.4800    -2.5780     2.1580 ha         1 JEY       0.133500
     39 H17         -2.2400    -1.5690     2.1400 ha         1 JEY       0.136000
     40 H18          0.5950    -3.2990    -0.5980 hn         1 JEY       0.300700
     41 H19          3.3630    -2.8160    -1.0070 ha         1 JEY       0.131000
     42 H20          5.0550    -1.0910    -0.6820 ha         1 JEY       0.133000
     43 O1           4.5690     1.4010     0.2770 os         1 JEY      -0.321900
@<TRIPOS>BOND
     1     1     2 1   
     2     1    18 1   
     3     1    23 1   
     4     1    24 1   
     5     2     6 1   
     6     2    25 1   
     7     2    26 1   
     8     3     4 2   
     9     3     5 1   
    10     3     6 1   
    11     5    27 1   
    12     5    28 1   
    13     5    29 1   
    14     6    30 1   
    15     7     8 ar  
    16     7    22 ar  
    17     7    43 1   
    18     8     9 ar  
    19     8    31 1   
    20     9    18 1   
    21     9    20 ar  
    22    10    32 1   
    23    10    33 1   
    24    10    34 1   
    25    10    43 1   
    26    11    12 ar  
    27    11    16 ar  
    28    11    35 1   
    29    12    13 ar  
    30    12    36 1   
    31    13    14 ar  
    32    13    37 1   
    33    14    15 ar  
    34    14    38 1   
    35    15    16 ar  
    36    15    39 1   
    37    16    19 1   
    38    17    19 1   
    39    17    20 1   
    40    17    40 1   
    41    18    19 2   
    42    20    21 ar  
    43    21    22 ar  
    44    21    41 1   
    45    22    42 1   
@<TRIPOS>SUBSTRUCTURE
     1 JEY         1 TEMP              0 ****  ****    0 ROOT
