@<TRIPOS>MOLECULE
JEY
   43    45     1     0     0
SMALL
No Charge or Current Charge


@<TRIPOS>ATOM
      1 C4          -0.9010     0.8140     0.8300 c3         1 JEY      -0.016200
      2 C3          -0.8160     2.0170    -0.1330 c3         1 JEY       0.102000
      3 C2          -1.8340     4.2980    -0.3950 c          1 JEY       0.597100
      4 O2          -1.3680     4.4630    -1.5130 o          1 JEY      -0.609100
      5 C1          -2.7000     5.3430     0.2970 c3         1 JEY      -0.179100
      6 N1          -1.6150     3.1530     0.3340 ns         1 JEY      -0.510900
      7 C10          3.6320     0.4070     0.0870 ca         1 JEY       0.111100
      8 C11          2.2840     0.6430     0.4280 ca         1 JEY      -0.105000
      9 C12          1.3320    -0.3420     0.1220 ca         1 JEY      -0.059800
     10 C13          5.9520     1.2490     0.0860 c3         1 JEY       0.151900
     11 C14         -2.2070    -3.3440    -0.7840 ca         1 JEY      -0.096500
     12 C15         -3.4470    -3.9920    -0.6510 ca         1 JEY      -0.110500
     13 C16         -4.3300    -3.6190     0.3740 ca         1 JEY      -0.102000
     14 C17         -3.9630    -2.6060     1.2720 ca         1 JEY      -0.110500
     15 C18         -2.7240    -1.9550     1.1370 ca         1 JEY      -0.096500
     16 C19         -1.8360    -2.2970     0.0920 ca         1 JEY      -0.044800
     17 N2           0.5930    -2.3390    -0.6160 na         1 JEY      -0.217700
     18 C5          -0.0880    -0.3750     0.3580 cc         1 JEY      -0.134400
     19 C6          -0.5150    -1.6450    -0.0720 cd         1 JEY       0.010700
     20 C7           1.6900    -1.5170    -0.4680 ca         1 JEY      -0.071200
     21 C8           3.0180    -1.7910    -0.8190 ca         1 JEY      -0.093000
     22 C9           3.9970    -0.8130    -0.5430 ca         1 JEY      -0.164000
     23 H1          -0.5640     1.1190     1.8280 hc         1 JEY       0.046200
     24 H2          -1.9620     0.5670     0.9100 hc         1 JEY       0.046200
     25 H3           0.2240     2.3450    -0.2440 h1         1 JEY       0.058200
     26 H4          -1.1810     1.7100    -1.1230 h1         1 JEY       0.058200
     27 H5          -3.6520     4.8830     0.5850 hc         1 JEY       0.057367
     28 H6          -2.2560     5.5860     1.2700 hc         1 JEY       0.057367
     29 H7          -2.8510     6.2390    -0.3140 hc         1 JEY       0.057367
     30 H8          -2.0410     3.1070     1.2520 hn         1 JEY       0.308500
     31 H9           2.0000     1.5660     0.9250 ha         1 JEY       0.131000
     32 H10          6.5030     2.1410     0.4100 h1         1 JEY       0.037367
     33 H11          6.3790     0.3800     0.6040 h1         1 JEY       0.037367
     34 H12          6.1070     1.1270    -0.9940 h1         1 JEY       0.037367
     35 H13         -1.5460    -3.6440    -1.5930 ha         1 JEY       0.118000
     36 H14         -3.7230    -4.7840    -1.3440 ha         1 JEY       0.115500
     37 H15         -5.2880    -4.1230     0.4800 ha         1 JEY       0.115000
     38 H16         -4.6320    -2.3340     2.0860 ha         1 JEY       0.115500
     39 H17         -2.4420    -1.2280     1.8910 ha         1 JEY       0.118000
     40 H18          0.5930    -3.2890    -0.9690 hn         1 JEY       0.351000
     41 H19          3.2900    -2.7340    -1.2880 ha         1 JEY       0.113000
     42 H20          5.0280    -1.0210    -0.8140 ha         1 JEY       0.115000
     43 O1           4.5530     1.3900     0.3900 os         1 JEY      -0.345100
@<TRIPOS>BOND
     1     1     2 1   
     2     1    18 1   
     3     1    23 1   
     4     1    24 1   
     5     2     6 1   
     6     2    25 1   
     7     2    26 1   
     8     3     4 2   
     9     3     5 1   
    10     3     6 1   
    11     5    27 1   
    12     5    28 1   
    13     5    29 1   
    14     6    30 1   
    15     7     8 ar  
    16     7    22 ar  
    17     7    43 1   
    18     8     9 ar  
    19     8    31 1   
    20     9    18 1   
    21     9    20 ar  
    22    10    32 1   
    23    10    33 1   
    24    10    34 1   
    25    10    43 1   
    26    11    12 ar  
    27    11    16 ar  
    28    11    35 1   
    29    12    13 ar  
    30    12    36 1   
    31    13    14 ar  
    32    13    37 1   
    33    14    15 ar  
    34    14    38 1   
    35    15    16 ar  
    36    15    39 1   
    37    16    19 1   
    38    17    19 1   
    39    17    20 1   
    40    17    40 1   
    41    18    19 2   
    42    20    21 ar  
    43    21    22 ar  
    44    21    41 1   
    45    22    42 1   
@<TRIPOS>SUBSTRUCTURE
     1 JEY         1 TEMP              0 ****  ****    0 ROOT
