@<TRIPOS>MOLECULE
JF0
   60    63     1     0     0
SMALL
abcg2


@<TRIPOS>ATOM
      1 CAA        -10.4140     1.2140    -2.3000 c3         1 JF0      -0.046800
      2 CAY         -9.8080     0.5300    -1.1080 ca         1 JF0      -0.075300
      3 CAN         -8.4260     0.4180    -0.9850 ca         1 JF0      -0.104000
      4 CAF        -10.6120    -0.0320    -0.1190 ca         1 JF0      -0.110000
      5 CAC        -10.0400    -0.6910     0.9600 ca         1 JF0      -0.107000
      6 CAG         -8.6620    -0.7940     1.0690 ca         1 JF0      -0.107000
      7 CBB         -7.8320    -0.2380     0.0940 cp         1 JF0      -0.021000
      8 CBA         -6.3620    -0.3350     0.2050 cp         1 JF0      -0.072000
      9 CAM         -5.7480    -1.4620     0.7610 ca         1 JF0      -0.062000
     10 CAK         -4.3750    -1.5540     0.8720 ca         1 JF0      -0.175000
     11 CAL         -5.5320     0.6920    -0.2370 ca         1 JF0      -0.062000
     12 CAJ         -4.1500     0.6160    -0.1350 ca         1 JF0      -0.175000
     13 CAZ         -3.5570    -0.5130     0.4270 ca         1 JF0       0.149100
     14 OAW         -2.2320    -0.6820     0.5830 os         1 JF0      -0.348100
     15 CAR         -1.3550     0.3510     0.1580 c3         1 JF0       0.165600
     16 CAP          0.0630    -0.0520     0.5040 c3         1 JF0      -0.081400
     17 CAO          1.0610     1.0130     0.0640 c3         1 JF0      -0.071400
     18 CAQ          2.4960     0.6510     0.4220 c3         1 JF0      -0.107400
     19 CAS          3.4780     1.7260    -0.0340 c3         1 JF0       0.116000
     20 NBD          4.8510     1.4460     0.3120 n          1 JF0      -0.410800
     21 CAX          5.6350     0.6330    -0.4330 c          1 JF0       0.614000
     22 OAB          5.3780     0.2110    -1.5440 o          1 JF0      -0.555000
     23 CAT          5.3510     1.5990     1.6580 c5         1 JF0       0.082000
     24 CAU          6.8150     1.2000     1.5040 c5         1 JF0       0.084000
     25 NBE          6.7950     0.3880     0.2950 n          1 JF0      -0.234400
     26 CBC          7.9100    -0.2900    -0.1500 ca         1 JF0       0.041000
     27 CAH          7.9030    -1.1770    -1.2340 ca         1 JF0      -0.211500
     28 CAD          9.0790    -1.8200    -1.5750 ca         1 JF0       0.355400
     29 NAV         10.2400    -1.6680    -0.9460 nb         1 JF0      -0.682000
     30 CAE         10.2390    -0.8310     0.0840 ca         1 JF0       0.355400
     31 CAI          9.1290    -0.1300     0.5200 ca         1 JF0      -0.211500
     32 HAA1       -10.5390     0.5140    -3.1290 hc         1 JF0       0.041700
     33 HAA2       -11.3970     1.6230    -2.0690 hc         1 JF0       0.041700
     34 HAA3        -9.7850     2.0290    -2.6570 hc         1 JF0       0.041700
     35 HAN         -7.8010     0.8430    -1.7630 ha         1 JF0       0.111000
     36 HAF        -11.6900     0.0490    -0.1920 ha         1 JF0       0.111000
     37 HAC        -10.6710    -1.1170     1.7290 ha         1 JF0       0.112000
     38 HAG         -8.2320    -1.2870     1.9320 ha         1 JF0       0.113000
     39 HAM         -6.3500    -2.2950     1.1010 ha         1 JF0       0.114500
     40 HAL         -5.9640     1.5920    -0.6570 ha         1 JF0       0.114500
     41 HAK         -3.9230    -2.4410     1.3000 ha         1 JF0       0.121500
     42 HAJ         -3.5600     1.4500    -0.4900 ha         1 JF0       0.121500
     43 HAR1        -1.4530     0.5110    -0.9220 h1         1 JF0       0.034700
     44 HAR2        -1.6110     1.2930     0.6560 h1         1 JF0       0.034700
     45 HAP1         0.1450    -0.2090     1.5830 hc         1 JF0       0.057700
     46 HAP2         0.3050    -1.0030     0.0220 hc         1 JF0       0.057700
     47 HAO1         0.9820     1.1640    -1.0180 hc         1 JF0       0.041200
     48 HAO2         0.8010     1.9710     0.5260 hc         1 JF0       0.041200
     49 HAQ1         2.5770     0.5090     1.5040 hc         1 JF0       0.050700
     50 HAQ2         2.7660    -0.3020    -0.0410 hc         1 JF0       0.050700
     51 HAS1         3.4140     1.8560    -1.1150 h1         1 JF0       0.061700
     52 HAS2         3.2160     2.6880     0.4120 h1         1 JF0       0.061700
     53 HAT          5.2410     2.6250     2.0080 h1         1 JF0       0.054700
     54 HAU          7.4600     2.0730     1.3750 h1         1 JF0       0.060200
     55 HAH          7.0120    -1.3780    -1.8040 ha         1 JF0       0.135500
     56 HAI          9.2330     0.5340     1.3650 ha         1 JF0       0.135500
     57 HAD          9.0710    -2.5070    -2.4150 h4         1 JF0       0.017100
     58 HAE         11.1810    -0.6990     0.6060 h4         1 JF0       0.017100
     59 HAR          4.8290     0.9420     2.3600 h1         1 JF0       0.054700
     60 HAS          7.1720     0.6300     2.3600 h1         1 JF0       0.060200
@<TRIPOS>BOND
     1     1     2 1   
     2     1    32 1   
     3     1    33 1   
     4     1    34 1   
     5     2     3 ar  
     6     2     4 ar  
     7     3     7 ar  
     8     3    35 1   
     9     4     5 ar  
    10     4    36 1   
    11     5     6 ar  
    12     5    37 1   
    13     6     7 ar  
    14     6    38 1   
    15     7     8 1   
    16     8     9 ar  
    17     8    11 ar  
    18     9    10 ar  
    19     9    39 1   
    20    10    13 ar  
    21    10    41 1   
    22    11    12 ar  
    23    11    40 1   
    24    12    13 ar  
    25    12    42 1   
    26    13    14 1   
    27    14    15 1   
    28    15    16 1   
    29    15    43 1   
    30    15    44 1   
    31    16    17 1   
    32    16    45 1   
    33    16    46 1   
    34    17    18 1   
    35    17    47 1   
    36    17    48 1   
    37    18    19 1   
    38    18    49 1   
    39    18    50 1   
    40    19    20 1   
    41    19    51 1   
    42    19    52 1   
    43    20    21 1   
    44    20    23 1   
    45    21    22 2   
    46    21    25 1   
    47    23    24 1   
    48    23    53 1   
    49    23    59 1   
    50    24    25 1   
    51    24    54 1   
    52    24    60 1   
    53    25    26 1   
    54    26    27 ar  
    55    26    31 ar  
    56    27    28 ar  
    57    27    55 1   
    58    28    29 ar  
    59    28    57 1   
    60    29    30 ar  
    61    30    31 ar  
    62    30    58 1   
    63    31    56 1   
@<TRIPOS>SUBSTRUCTURE
     1 JF0         1 TEMP              0 ****  ****    0 ROOT
