@<TRIPOS>MOLECULE
JF0
   60    63     1     0     0
SMALL
No Charge or Current Charge


@<TRIPOS>ATOM
      1 CAA        -10.5710     0.9510    -2.5980 c3         1 JF0      -0.046800
      2 CAY         -9.9840     0.3780    -1.3170 ca         1 JF0      -0.075300
      3 CAN         -8.5890     0.3270    -1.1380 ca         1 JF0      -0.104000
      4 CAF        -10.8300    -0.1140    -0.3070 ca         1 JF0      -0.110000
      5 CAC        -10.2840    -0.6490     0.8710 ca         1 JF0      -0.107000
      6 CAG         -8.8910    -0.6950     1.0440 ca         1 JF0      -0.107000
      7 CBB         -8.0130    -0.2080     0.0430 cp         1 JF0      -0.021000
      8 CBA         -6.5270    -0.2580     0.2260 cp         1 JF0      -0.072000
      9 CAM         -5.9090    -1.3320     0.9140 ca         1 JF0      -0.062000
     10 CAK         -4.5150    -1.3770     1.0850 ca         1 JF0      -0.175000
     11 CAL         -5.6910     0.7690    -0.2820 ca         1 JF0      -0.062000
     12 CAJ         -4.2960     0.7250    -0.1120 ca         1 JF0      -0.175000
     13 CAZ         -3.7020    -0.3540     0.5760 ca         1 JF0       0.149100
     14 OAW         -2.3400    -0.4530     0.7740 os         1 JF0      -0.348100
     15 CAR         -1.4230     0.5430     0.2910 c3         1 JF0       0.165600
     16 CAP         -0.0020     0.1030     0.6920 c3         1 JF0      -0.081400
     17 CAO          1.0890     1.0940     0.2300 c3         1 JF0      -0.071400
     18 CAQ          2.5130     0.6540     0.6320 c3         1 JF0      -0.107400
     19 CAS          3.6010     1.6440     0.1700 c3         1 JF0       0.116000
     20 NBD          4.9570     1.2140     0.5630 n          1 JF0      -0.410800
     21 CAX          5.8140     0.5790    -0.3190 c          1 JF0       0.614000
     22 OAB          5.5450     0.3130    -1.4820 o          1 JF0      -0.555000
     23 CAT          5.5480     1.4140     1.8980 c5         1 JF0       0.082000
     24 CAU          7.0090     0.8660     1.7170 c5         1 JF0       0.084000
     25 NBE          7.0170     0.3210     0.3370 n          1 JF0      -0.234400
     26 CBC          8.1550    -0.3830    -0.2020 ca         1 JF0       0.041000
     27 CAH          8.0410    -1.3060    -1.2590 ca         1 JF0      -0.211500
     28 CAD          9.1960    -1.8420    -1.8490 ca         1 JF0       0.355400
     29 NAV         10.4450    -1.4790    -1.4850 nb         1 JF0      -0.682000
     30 CAE         10.5640    -0.5460    -0.5160 ca         1 JF0       0.355400
     31 CAI          9.4590     0.0360     0.1250 ca         1 JF0      -0.211500
     32 HAA1       -10.6440     0.1790    -3.3730 hc         1 JF0       0.041700
     33 HAA2       -11.5770     1.3550    -2.4330 hc         1 JF0       0.041700
     34 HAA3        -9.9510     1.7640    -2.9920 hc         1 JF0       0.041700
     35 HAN         -7.9420     0.6940    -1.9310 ha         1 JF0       0.111000
     36 HAF        -11.9100    -0.0840    -0.4340 ha         1 JF0       0.111000
     37 HAC        -10.9410    -1.0250     1.6520 ha         1 JF0       0.112000
     38 HAG         -8.4900    -1.1000     1.9690 ha         1 JF0       0.113000
     39 HAM         -6.5140    -2.1460     1.3080 ha         1 JF0       0.114500
     40 HAL         -6.1290     1.6160    -0.8030 ha         1 JF0       0.114500
     41 HAK         -4.0610    -2.2120     1.6120 ha         1 JF0       0.121500
     42 HAJ         -3.6970     1.5360    -0.5160 ha         1 JF0       0.121500
     43 HAR1        -1.4840     0.6300    -0.8020 h1         1 JF0       0.034700
     44 HAR2        -1.6430     1.5220     0.7360 h1         1 JF0       0.034700
     45 HAP1         0.0440    -0.0030     1.7830 hc         1 JF0       0.057700
     46 HAP2         0.2010    -0.8850     0.2620 hc         1 JF0       0.057700
     47 HAO1         1.0390     1.2020    -0.8610 hc         1 JF0       0.041200
     48 HAO2         0.8820     2.0830     0.6590 hc         1 JF0       0.041200
     49 HAQ1         2.5660     0.5470     1.7230 hc         1 JF0       0.050700
     50 HAQ2         2.7240    -0.3320     0.2010 hc         1 JF0       0.050700
     51 HAS1         3.5490     1.7630    -0.9200 h1         1 JF0       0.061700
     52 HAS2         3.4060     2.6280     0.6160 h1         1 JF0       0.061700
     53 HAT          5.5460     2.4730     2.1850 h1         1 JF0       0.054700
     54 HAU          7.7420     1.6750     1.8240 h1         1 JF0       0.060200
     55 HAH          7.0730    -1.6460    -1.6130 ha         1 JF0       0.135500
     56 HAI          9.6340     0.8050     0.8700 ha         1 JF0       0.135500
     57 HAD          9.1190    -2.5800    -2.6470 h4         1 JF0       0.017100
     58 HAE         11.5780    -0.2440    -0.2550 h4         1 JF0       0.017100
     59 HAR          4.9990     0.8450     2.6590 h1         1 JF0       0.054700
     60 HAS          7.2420     0.0870     2.4540 h1         1 JF0       0.060200
@<TRIPOS>BOND
     1     1     2 1   
     2     1    32 1   
     3     1    33 1   
     4     1    34 1   
     5     2     3 ar  
     6     2     4 ar  
     7     3     7 ar  
     8     3    35 1   
     9     4     5 ar  
    10     4    36 1   
    11     5     6 ar  
    12     5    37 1   
    13     6     7 ar  
    14     6    38 1   
    15     7     8 1   
    16     8     9 ar  
    17     8    11 ar  
    18     9    10 ar  
    19     9    39 1   
    20    10    13 ar  
    21    10    41 1   
    22    11    12 ar  
    23    11    40 1   
    24    12    13 ar  
    25    12    42 1   
    26    13    14 1   
    27    14    15 1   
    28    15    16 1   
    29    15    43 1   
    30    15    44 1   
    31    16    17 1   
    32    16    45 1   
    33    16    46 1   
    34    17    18 1   
    35    17    47 1   
    36    17    48 1   
    37    18    19 1   
    38    18    49 1   
    39    18    50 1   
    40    19    20 1   
    41    19    51 1   
    42    19    52 1   
    43    20    21 1   
    44    20    23 1   
    45    21    22 2   
    46    21    25 1   
    47    23    24 1   
    48    23    53 1   
    49    23    59 1   
    50    24    25 1   
    51    24    54 1   
    52    24    60 1   
    53    25    26 1   
    54    26    27 ar  
    55    26    31 ar  
    56    27    28 ar  
    57    27    55 1   
    58    28    29 ar  
    59    28    57 1   
    60    29    30 ar  
    61    30    31 ar  
    62    30    58 1   
    63    31    56 1   
@<TRIPOS>SUBSTRUCTURE
     1 JF0         1 TEMP              0 ****  ****    0 ROOT
