@<TRIPOS>MOLECULE
JF1
   41    42     1     0     0
SMALL
No Charge or Current Charge


@<TRIPOS>ATOM
      1 CAJ          0.7510     0.7470     0.1150 c6         1 JF1      -0.102400
      2 CAO         -0.6900     0.3130    -0.3100 c6         1 JF1       0.152000
      3 CAD         -0.8330     0.3840    -1.8690 c3         1 JF1      -0.116100
      4 CAM         -1.7570     1.2330     0.4030 c6         1 JF1      -0.076700
      5 CAC         -1.6700     2.7460     0.0300 c3         1 JF1      -0.092100
      6 CAF         -3.2150     0.7210     0.2020 c6         1 JF1      -0.090400
      7 CAE         -3.3660    -0.7600     0.6200 c6         1 JF1      -0.102400
      8 CAH         -2.3290    -1.6480    -0.0900 c6         1 JF1       0.098600
      9 NAN         -0.9140    -1.1280     0.1930 nx         1 JF1      -0.669000
     10 CAI          0.1490    -2.1230    -0.2950 c6         1 JF1       0.097600
     11 CAG          1.5460    -1.6760     0.1720 c6         1 JF1      -0.099400
     12 CAL          1.8610    -0.2460    -0.3320 c6         1 JF1      -0.021500
     13 CAK          3.2640     0.2300     0.0710 c2         1 JF1      -0.145400
     14 CAB          4.1660     0.5830    -0.8610 c2         1 JF1      -0.270000
     15 CAA          3.5830     0.2890     1.5590 c3         1 JF1      -0.057900
     16 H1           0.9840     1.7360    -0.3010 hc         1 JF1       0.080200
     17 H2           0.7810     0.8600     1.2060 hc         1 JF1       0.080200
     18 H3          -0.1890    -0.3370    -2.3810 hc         1 JF1       0.069367
     19 H4          -1.8520     0.1730    -2.2050 hc         1 JF1       0.069367
     20 H5          -0.5630     1.3750    -2.2520 hc         1 JF1       0.069367
     21 H6          -1.5560     1.1960     1.4840 hc         1 JF1       0.057700
     22 H7          -1.8720     2.9190    -1.0330 hc         1 JF1       0.057367
     23 H8          -2.4070     3.3290     0.5960 hc         1 JF1       0.057367
     24 H9          -0.6890     3.1740     0.2620 hc         1 JF1       0.057367
     25 H10         -3.9090     1.3320     0.7950 hc         1 JF1       0.076200
     26 H11         -3.5280     0.8460    -0.8430 hc         1 JF1       0.076200
     27 H12         -3.2450    -0.8550     1.7080 hc         1 JF1       0.081200
     28 H13         -4.3790    -1.1160     0.3870 hc         1 JF1       0.081200
     29 H14         -2.3900    -2.6830     0.2620 hx         1 JF1       0.093200
     30 H15         -2.4770    -1.6500    -1.1750 hx         1 JF1       0.093200
     31 H16         -0.8220    -1.0880     1.2300 hn         1 JF1       0.489000
     32 H17         -0.1010    -3.1110     0.1050 hx         1 JF1       0.091700
     33 H18          0.0890    -2.1750    -1.3860 hx         1 JF1       0.091700
     34 H19          1.5850    -1.7190     1.2680 hc         1 JF1       0.082200
     35 H20          2.3020    -2.3810    -0.2000 hc         1 JF1       0.082200
     36 H21          1.8390    -0.2860    -1.4290 hc         1 JF1       0.064700
     37 H22          5.1660     0.9250    -0.5920 ha         1 JF1       0.178000
     38 H23          3.9430     0.5450    -1.9280 ha         1 JF1       0.178000
     39 H24          3.5250    -0.7010     2.0260 hc         1 JF1       0.046033
     40 H25          4.5980     0.6640     1.7360 hc         1 JF1       0.046033
     41 H26          2.9000     0.9560     2.0960 hc         1 JF1       0.046033
@<TRIPOS>BOND
     1     1     2 1   
     2     1    12 1   
     3     1    16 1   
     4     1    17 1   
     5     2     3 1   
     6     2     4 1   
     7     2     9 1   
     8     3    18 1   
     9     3    19 1   
    10     3    20 1   
    11     4     5 1   
    12     4     6 1   
    13     4    21 1   
    14     5    22 1   
    15     5    23 1   
    16     5    24 1   
    17     6     7 1   
    18     6    25 1   
    19     6    26 1   
    20     7     8 1   
    21     7    27 1   
    22     7    28 1   
    23     8     9 1   
    24     8    29 1   
    25     8    30 1   
    26     9    10 1   
    27     9    31 1   
    28    10    11 1   
    29    10    32 1   
    30    10    33 1   
    31    11    12 1   
    32    11    34 1   
    33    11    35 1   
    34    12    13 1   
    35    12    36 1   
    36    13    14 2   
    37    13    15 1   
    38    14    37 1   
    39    14    38 1   
    40    15    39 1   
    41    15    40 1   
    42    15    41 1   
@<TRIPOS>SUBSTRUCTURE
     1 JF1         1 TEMP              0 ****  ****    0 ROOT
