@<TRIPOS>MOLECULE
JF1
   41    42     1     0     0
SMALL
abcg2


@<TRIPOS>ATOM
      1 CAJ          0.7380     0.7190     0.1310 c6         1 JF1      -0.102400
      2 CAO         -0.6790     0.3280    -0.3050 c6         1 JF1       0.152000
      3 CAD         -0.8270     0.4000    -1.8200 c3         1 JF1      -0.116100
      4 CAM         -1.7260     1.2010     0.4260 c6         1 JF1      -0.076700
      5 CAC         -1.6180     2.6780     0.0610 c3         1 JF1      -0.092100
      6 CAF         -3.1530     0.7040     0.1980 c6         1 JF1      -0.090400
      7 CAE         -3.3100    -0.7560     0.5890 c6         1 JF1      -0.102400
      8 CAH         -2.2790    -1.6270    -0.0920 c6         1 JF1       0.098600
      9 NAN         -0.9040    -1.1100     0.1770 nx         1 JF1      -0.669000
     10 CAI          0.1300    -2.0780    -0.2980 c6         1 JF1       0.097600
     11 CAG          1.5170    -1.6440     0.1210 c6         1 JF1      -0.099400
     12 CAL          1.8310    -0.2300    -0.3650 c6         1 JF1      -0.021500
     13 CAK          3.2060     0.2290     0.0580 c2         1 JF1      -0.145400
     14 CAB          4.1420     0.4750    -0.8560 c2         1 JF1      -0.270000
     15 CAA          3.4740     0.4000     1.5250 c3         1 JF1      -0.057900
     16 H1           0.9370     1.7260    -0.2360 hc         1 JF1       0.080200
     17 H2           0.7640     0.7760     1.2250 hc         1 JF1       0.080200
     18 H3          -0.1780    -0.2970    -2.3470 hc         1 JF1       0.069367
     19 H4          -1.8460     0.2280    -2.1620 hc         1 JF1       0.069367
     20 H5          -0.5400     1.3970    -2.1500 hc         1 JF1       0.069367
     21 H6          -1.5120     1.1100     1.5000 hc         1 JF1       0.057700
     22 H7          -1.8490     2.8510    -0.9900 hc         1 JF1       0.057367
     23 H8          -2.3380     3.2470     0.6500 hc         1 JF1       0.057367
     24 H9          -0.6330     3.0950     0.2680 hc         1 JF1       0.057367
     25 H10         -3.8350     1.3160     0.7910 hc         1 JF1       0.076200
     26 H11         -3.4430     0.8490    -0.8470 hc         1 JF1       0.076200
     27 H12         -3.2150    -0.8680     1.6730 hc         1 JF1       0.081200
     28 H13         -4.3000    -1.1290     0.3210 hc         1 JF1       0.081200
     29 H14         -2.3080    -2.6480     0.2850 hx         1 JF1       0.093200
     30 H15         -2.4130    -1.6660    -1.1720 hx         1 JF1       0.093200
     31 H16         -0.8100    -1.0790     1.1970 hn         1 JF1       0.489000
     32 H17         -0.1270    -3.0410     0.1400 hx         1 JF1       0.091700
     33 H18          0.0330    -2.1680    -1.3790 hx         1 JF1       0.091700
     34 H19          1.5930    -1.7010     1.2110 hc         1 JF1       0.082200
     35 H20          2.2310    -2.3620    -0.2840 hc         1 JF1       0.082200
     36 H21          1.8170    -0.2380    -1.4590 hc         1 JF1       0.064700
     37 H22          5.1370     0.8020    -0.5780 ha         1 JF1       0.178000
     38 H23          3.9460     0.3610    -1.9150 ha         1 JF1       0.178000
     39 H24          3.2690    -0.5140     2.0870 hc         1 JF1       0.046033
     40 H25          4.5120     0.6750     1.7070 hc         1 JF1       0.046033
     41 H26          2.8450     1.1790     1.9600 hc         1 JF1       0.046033
@<TRIPOS>BOND
     1     1     2 1   
     2     1    12 1   
     3     1    16 1   
     4     1    17 1   
     5     2     3 1   
     6     2     4 1   
     7     2     9 1   
     8     3    18 1   
     9     3    19 1   
    10     3    20 1   
    11     4     5 1   
    12     4     6 1   
    13     4    21 1   
    14     5    22 1   
    15     5    23 1   
    16     5    24 1   
    17     6     7 1   
    18     6    25 1   
    19     6    26 1   
    20     7     8 1   
    21     7    27 1   
    22     7    28 1   
    23     8     9 1   
    24     8    29 1   
    25     8    30 1   
    26     9    10 1   
    27     9    31 1   
    28    10    11 1   
    29    10    32 1   
    30    10    33 1   
    31    11    12 1   
    32    11    34 1   
    33    11    35 1   
    34    12    13 1   
    35    12    36 1   
    36    13    14 2   
    37    13    15 1   
    38    14    37 1   
    39    14    38 1   
    40    15    39 1   
    41    15    40 1   
    42    15    41 1   
@<TRIPOS>SUBSTRUCTURE
     1 JF1         1 TEMP              0 ****  ****    0 ROOT
