@<TRIPOS>MOLECULE
JF2
   41    42     1     0     0
SMALL
No Charge or Current Charge


@<TRIPOS>ATOM
      1 CAJ         -0.7400     0.7750     0.1320 c6         1 JF2      -0.102400
      2 CAO          0.7090     0.3530    -0.2800 c6         1 JF2       0.152000
      3 CAD          0.8790     0.4490    -1.8350 c3         1 JF2      -0.116100
      4 CAM          1.7620     1.2650     0.4660 c6         1 JF2      -0.077700
      5 CAC          1.6770     2.7830     0.1150 c3         1 JF2      -0.092100
      6 CAF          3.2240     0.7590     0.2820 c6         1 JF2      -0.090400
      7 CAE          3.3720    -0.7280     0.6790 c6         1 JF2      -0.102400
      8 CAH          2.3500    -1.6070    -0.0630 c6         1 JF2       0.098600
      9 NAN          0.9300    -1.0950     0.2040 nx         1 JF2      -0.669000
     10 CAI         -0.1220    -2.0850    -0.3180 c6         1 JF2       0.098600
     11 CAG         -1.5300    -1.6500     0.1280 c6         1 JF2      -0.099400
     12 CAL         -1.8390    -0.2120    -0.3550 c6         1 JF2      -0.021500
     13 CAK         -3.2540     0.2430     0.0300 c2         1 JF2      -0.145400
     14 CAB         -4.1740     0.5040    -0.9140 c2         1 JF2      -0.271000
     15 CAA         -3.5660     0.3800     1.5150 c3         1 JF2      -0.057900
     16 H1          -0.7860     0.8600     1.2250 hc         1 JF2       0.080200
     17 H2          -0.9720     1.7730    -0.2610 hc         1 JF2       0.080200
     18 H3           0.2480    -0.2670    -2.3700 hc         1 JF2       0.069700
     19 H4           0.6130     1.4440    -2.2070 hc         1 JF2       0.069700
     20 H5           1.9060     0.2470    -2.1570 hc         1 JF2       0.069700
     21 H6           1.5430     1.2100     1.5420 hc         1 JF2       0.057700
     22 H7           0.6910     3.2050     0.3370 hc         1 JF2       0.057367
     23 H8           2.4030     3.3590     0.7020 hc         1 JF2       0.057367
     24 H9           1.8970     2.9720    -0.9420 hc         1 JF2       0.057367
     25 H10          3.5560     0.9020    -0.7560 hc         1 JF2       0.076200
     26 H11          3.9070     1.3630     0.8960 hc         1 JF2       0.076200
     27 H12          4.3900    -1.0770     0.4590 hc         1 JF2       0.081200
     28 H13          3.2330    -0.8400     1.7630 hc         1 JF2       0.081200
     29 H14          2.5180    -1.5910    -1.1440 hx         1 JF2       0.093200
     30 H15          2.4090    -2.6470     0.2750 hx         1 JF2       0.093200
     31 H16          0.8190    -1.0730     1.2400 hn         1 JF2       0.489000
     32 H17         -0.0410    -2.1200    -1.4090 hx         1 JF2       0.091700
     33 H18          0.1230    -3.0790     0.0710 hx         1 JF2       0.091700
     34 H19         -2.2750    -2.3500    -0.2730 hc         1 JF2       0.082700
     35 H20         -1.5930    -1.7140     1.2210 hc         1 JF2       0.082700
     36 H21         -1.7960    -0.2310    -1.4510 hc         1 JF2       0.064700
     37 H22         -5.1840     0.8270    -0.6580 ha         1 JF2       0.178000
     38 H23         -3.9580     0.4070    -1.9780 ha         1 JF2       0.178000
     39 H24         -2.9360     1.1380     1.9940 hc         1 JF2       0.046033
     40 H25         -4.6060     0.6850     1.6780 hc         1 JF2       0.046033
     41 H26         -3.4250    -0.5660     2.0490 hc         1 JF2       0.046033
@<TRIPOS>BOND
     1     1     2 1   
     2     1    12 1   
     3     1    16 1   
     4     1    17 1   
     5     2     3 1   
     6     2     4 1   
     7     2     9 1   
     8     3    18 1   
     9     3    19 1   
    10     3    20 1   
    11     4     5 1   
    12     4     6 1   
    13     4    21 1   
    14     5    22 1   
    15     5    23 1   
    16     5    24 1   
    17     6     7 1   
    18     6    25 1   
    19     6    26 1   
    20     7     8 1   
    21     7    27 1   
    22     7    28 1   
    23     8     9 1   
    24     8    29 1   
    25     8    30 1   
    26     9    10 1   
    27     9    31 1   
    28    10    11 1   
    29    10    32 1   
    30    10    33 1   
    31    11    12 1   
    32    11    34 1   
    33    11    35 1   
    34    12    13 1   
    35    12    36 1   
    36    13    14 2   
    37    13    15 1   
    38    14    37 1   
    39    14    38 1   
    40    15    39 1   
    41    15    40 1   
    42    15    41 1   
@<TRIPOS>SUBSTRUCTURE
     1 JF2         1 TEMP              0 ****  ****    0 ROOT
