@<TRIPOS>MOLECULE
JF2
   41    42     1     0     0
SMALL
abcg2


@<TRIPOS>ATOM
      1 CAJ         -0.7270     0.7470     0.1400 c6         1 JF2      -0.102400
      2 CAO          0.6970     0.3660    -0.2790 c6         1 JF2       0.152000
      3 CAD          0.8680     0.4490    -1.7910 c3         1 JF2      -0.116100
      4 CAM          1.7290     1.2390     0.4740 c6         1 JF2      -0.077700
      5 CAC          1.6200     2.7180     0.1170 c3         1 JF2      -0.092100
      6 CAF          3.1620     0.7500     0.2670 c6         1 JF2      -0.090400
      7 CAE          3.3200    -0.7120     0.6500 c6         1 JF2      -0.102400
      8 CAH          2.3040    -1.5830    -0.0540 c6         1 JF2       0.098600
      9 NAN          0.9220    -1.0730     0.1970 nx         1 JF2      -0.669000
     10 CAI         -0.1010    -2.0430    -0.2990 c6         1 JF2       0.098600
     11 CAG         -1.4960    -1.6180     0.1000 c6         1 JF2      -0.099400
     12 CAL         -1.8080    -0.2020    -0.3820 c6         1 JF2      -0.021500
     13 CAK         -3.1920     0.2480     0.0210 c2         1 JF2      -0.145400
     14 CAB         -4.1140     0.4940    -0.9070 c2         1 JF2      -0.271000
     15 CAA         -3.4850     0.4090     1.4840 c3         1 JF2      -0.057900
     16 H1          -0.7700     0.7930     1.2340 hc         1 JF2       0.080200
     17 H2          -0.9250     1.7570    -0.2200 hc         1 JF2       0.080200
     18 H3           0.2300    -0.2470    -2.3320 hc         1 JF2       0.069700
     19 H4           0.5800     1.4470    -2.1180 hc         1 JF2       0.069700
     20 H5           1.8920     0.2850    -2.1190 hc         1 JF2       0.069700
     21 H6           1.4970     1.1420     1.5440 hc         1 JF2       0.057700
     22 H7           0.6310     3.1290     0.3100 hc         1 JF2       0.057367
     23 H8           2.3290     3.2860     0.7200 hc         1 JF2       0.057367
     24 H9           1.8670     2.8990    -0.9300 hc         1 JF2       0.057367
     25 H10          3.4690     0.9030    -0.7710 hc         1 JF2       0.076200
     26 H11          3.8300     1.3610     0.8760 hc         1 JF2       0.076200
     27 H12          4.3150    -1.0790     0.3970 hc         1 JF2       0.081200
     28 H13          3.2080    -0.8320     1.7320 hc         1 JF2       0.081200
     29 H14          2.4550    -1.6140    -1.1310 hx         1 JF2       0.093200
     30 H15          2.3320    -2.6060     0.3170 hx         1 JF2       0.093200
     31 H16          0.8120    -1.0480     1.2150 hn         1 JF2       0.489000
     32 H17          0.0150    -2.1280    -1.3780 hx         1 JF2       0.091700
     33 H18          0.1530    -3.0070     0.1390 hx         1 JF2       0.091700
     34 H19         -2.2000    -2.3360    -0.3230 hc         1 JF2       0.082700
     35 H20         -1.5910    -1.6830     1.1880 hc         1 JF2       0.082700
     36 H21         -1.7740    -0.2020    -1.4760 hc         1 JF2       0.064700
     37 H22         -5.1160     0.8140    -0.6440 ha         1 JF2       0.178000
     38 H23         -3.9000     0.3870    -1.9640 ha         1 JF2       0.178000
     39 H24         -2.8700     1.1930     1.9320 hc         1 JF2       0.046033
     40 H25         -4.5280     0.6740     1.6510 hc         1 JF2       0.046033
     41 H26         -3.2790    -0.5050     2.0450 hc         1 JF2       0.046033
@<TRIPOS>BOND
     1     1     2 1   
     2     1    12 1   
     3     1    16 1   
     4     1    17 1   
     5     2     3 1   
     6     2     4 1   
     7     2     9 1   
     8     3    18 1   
     9     3    19 1   
    10     3    20 1   
    11     4     5 1   
    12     4     6 1   
    13     4    21 1   
    14     5    22 1   
    15     5    23 1   
    16     5    24 1   
    17     6     7 1   
    18     6    25 1   
    19     6    26 1   
    20     7     8 1   
    21     7    27 1   
    22     7    28 1   
    23     8     9 1   
    24     8    29 1   
    25     8    30 1   
    26     9    10 1   
    27     9    31 1   
    28    10    11 1   
    29    10    32 1   
    30    10    33 1   
    31    11    12 1   
    32    11    34 1   
    33    11    35 1   
    34    12    13 1   
    35    12    36 1   
    36    13    14 2   
    37    13    15 1   
    38    14    37 1   
    39    14    38 1   
    40    15    39 1   
    41    15    40 1   
    42    15    41 1   
@<TRIPOS>SUBSTRUCTURE
     1 JF2         1 TEMP              0 ****  ****    0 ROOT
