@<TRIPOS>MOLECULE
JF4
   41    42     1     0     0
SMALL
bcc


@<TRIPOS>ATOM
      1 CAA          4.0280    -0.5810     0.8640 c2         1 JF4      -0.165000
      2 CAK          3.0490    -0.3170     0.0020 c2         1 JF4      -0.149400
      3 CAB          3.2230    -0.5010    -1.4780 c3         1 JF4      -0.058900
      4 CAL          1.7180     0.1960     0.5000 c6         1 JF4      -0.035500
      5 CAG          1.4030     1.6110     0.0270 c6         1 JF4      -0.082400
      6 CAI          0.0550     2.0420     0.5770 c6         1 JF4      -0.103400
      7 CAO         -1.1120     1.1120     0.2330 c6         1 JF4       0.173200
      8 CAD         -2.3160     1.5500     1.0640 c3         1 JF4      -0.126100
      9 NAN         -0.7260    -0.3130     0.6370 nx         1 JF4      -0.695400
     10 CAJ          0.5970    -0.7500     0.0900 c6         1 JF4       0.125800
     11 CAH         -1.4330     1.1140    -1.2620 c6         1 JF4      -0.093400
     12 CAE         -2.5100     0.1040    -1.6470 c6         1 JF4      -0.085400
     13 CAF         -2.1660    -1.2920    -1.1450 c6         1 JF4      -0.096400
     14 CAM         -1.8340    -1.3070     0.3390 c6         1 JF4       0.149500
     15 CAC         -1.4980    -2.6890     0.8660 c3         1 JF4      -0.126100
     16 H1           3.8960    -0.4530     1.9310 ha         1 JF4       0.129500
     17 H2           4.9970    -0.9340     0.5310 ha         1 JF4       0.129500
     18 H3           2.5530    -1.2690    -1.8720 hc         1 JF4       0.048033
     19 H4           3.0060     0.4150    -2.0300 hc         1 JF4       0.048033
     20 H5           4.2410    -0.8030    -1.7190 hc         1 JF4       0.048033
     21 H6           1.7580     0.2060     1.5950 hc         1 JF4       0.059700
     22 H7           2.1730     2.2970     0.3820 hc         1 JF4       0.077200
     23 H8           1.4150     1.6670    -1.0640 hc         1 JF4       0.077200
     24 H9           0.1240     2.1290     1.6660 hc         1 JF4       0.076700
     25 H10         -0.2090     3.0350     0.2080 hc         1 JF4       0.076700
     26 H11         -2.4410     2.6250     0.9370 hc         1 JF4       0.070033
     27 H12         -3.2520     1.0810     0.7710 hc         1 JF4       0.070033
     28 H13         -2.1590     1.3640     2.1280 hc         1 JF4       0.070033
     29 H15          0.5030    -0.8230    -0.9920 hx         1 JF4       0.095700
     30 H16          0.7930    -1.7460     0.4800 hx         1 JF4       0.095700
     31 H17         -1.7510     2.1260    -1.5200 hc         1 JF4       0.077700
     32 H18         -0.5310     0.9240    -1.8480 hc         1 JF4       0.077700
     33 H19         -3.4780     0.4090    -1.2440 hc         1 JF4       0.074200
     34 H20         -2.6210     0.0900    -2.7310 hc         1 JF4       0.074200
     35 H21         -3.0120    -1.9660    -1.2890 hc         1 JF4       0.078200
     36 H22         -1.3400    -1.7180    -1.7210 hc         1 JF4       0.078200
     37 H23         -2.6890    -0.9360     0.9040 hx         1 JF4       0.091700
     38 H24         -1.1340    -2.6570     1.8930 hc         1 JF4       0.072033
     39 H25         -2.4130    -3.2800     0.8640 hc         1 JF4       0.072033
     40 H26         -0.7700    -3.2120     0.2480 hc         1 JF4       0.072033
     41 H14         -0.6210    -0.3050     1.6550 hn         1 JF4       0.428800
@<TRIPOS>BOND
     1     1     2 2   
     2     1    16 1   
     3     1    17 1   
     4     2     3 1   
     5     2     4 1   
     6     3    18 1   
     7     3    19 1   
     8     3    20 1   
     9     4     5 1   
    10     4    10 1   
    11     4    21 1   
    12     5     6 1   
    13     5    22 1   
    14     5    23 1   
    15     6     7 1   
    16     6    24 1   
    17     6    25 1   
    18     7     8 1   
    19     7     9 1   
    20     7    11 1   
    21     8    26 1   
    22     8    27 1   
    23     8    28 1   
    24     9    10 1   
    25     9    14 1   
    26     9    41 1   
    27    10    29 1   
    28    10    30 1   
    29    11    12 1   
    30    11    31 1   
    31    11    32 1   
    32    12    13 1   
    33    12    33 1   
    34    12    34 1   
    35    13    14 1   
    36    13    35 1   
    37    13    36 1   
    38    14    15 1   
    39    14    37 1   
    40    15    38 1   
    41    15    39 1   
    42    15    40 1   
@<TRIPOS>SUBSTRUCTURE
     1 JF4         1 TEMP              0 ****  ****    0 ROOT
