@<TRIPOS>MOLECULE
JF4
   41    42     1     0     0
SMALL
No Charge or Current Charge


@<TRIPOS>ATOM
      1 CAA          4.1580    -0.4400     0.8480 c2         1 JF4      -0.265000
      2 CAK          3.1150    -0.3060     0.0110 c2         1 JF4      -0.149400
      3 CAB          3.2220    -0.6160    -1.4760 c3         1 JF4      -0.058900
      4 CAL          1.7520     0.1720     0.5210 c6         1 JF4      -0.035500
      5 CAG          1.4320     1.6080     0.0540 c6         1 JF4      -0.082400
      6 CAI          0.0650     2.0760     0.6100 c6         1 JF4      -0.103400
      7 CAO         -1.1200     1.1180     0.2720 c6         1 JF4       0.145000
      8 CAD         -2.3460     1.6030     1.1050 c3         1 JF4      -0.126100
      9 NAN         -0.7530    -0.3240     0.6760 nx         1 JF4      -0.666000
     10 CAJ          0.6110    -0.7750     0.1040 c6         1 JF4       0.097600
     11 CAH         -1.4530     1.1570    -1.2560 c6         1 JF4      -0.093400
     12 CAE         -2.5420     0.1300    -1.6670 c6         1 JF4      -0.085400
     13 CAF         -2.1840    -1.2990    -1.1900 c6         1 JF4      -0.096400
     14 CAM         -1.8760    -1.3240     0.3270 c6         1 JF4       0.121300
     15 CAC         -1.5680    -2.7590     0.8280 c3         1 JF4      -0.126100
     16 H1           4.0790    -0.2160     1.9120 ha         1 JF4       0.179500
     17 H2           5.1340    -0.7790     0.5000 ha         1 JF4       0.179500
     18 H3           2.5510    -1.4310    -1.7690 hc         1 JF4       0.048033
     19 H4           2.9790     0.2580    -2.0900 hc         1 JF4       0.048033
     20 H5           4.2380    -0.9260    -1.7480 hc         1 JF4       0.048033
     21 H6           1.7810     0.1800     1.6200 hc         1 JF4       0.059700
     22 H7           2.2200     2.2900     0.3990 hc         1 JF4       0.077200
     23 H8           1.4350     1.6660    -1.0410 hc         1 JF4       0.077200
     24 H9           0.1550     2.1750     1.7010 hc         1 JF4       0.076700
     25 H10         -0.1530     3.0870     0.2380 hc         1 JF4       0.076700
     26 H11         -2.6040     2.6400     0.8600 hc         1 JF4       0.070033
     27 H12         -3.2450     1.0020     0.9370 hc         1 JF4       0.070033
     28 H13         -2.1350     1.5650     2.1800 hc         1 JF4       0.070033
     29 H15          0.5170    -0.8110    -0.9850 hx         1 JF4       0.095700
     30 H16          0.8110    -1.7910     0.4580 hx         1 JF4       0.095700
     31 H17         -1.7730     2.1670    -1.5440 hc         1 JF4       0.077700
     32 H18         -0.5530     0.9500    -1.8470 hc         1 JF4       0.077700
     33 H19         -3.5180     0.4250    -1.2590 hc         1 JF4       0.074200
     34 H20         -2.6610     0.1350    -2.7590 hc         1 JF4       0.074200
     35 H21         -3.0180    -1.9790    -1.4110 hc         1 JF4       0.078200
     36 H22         -1.3230    -1.6750    -1.7580 hc         1 JF4       0.078200
     37 H23         -2.7630    -0.9920     0.8770 hx         1 JF4       0.091700
     38 H24         -1.2710    -2.7520     1.8830 hc         1 JF4       0.072033
     39 H25         -2.4570    -3.3940     0.7430 hc         1 JF4       0.072033
     40 H26         -0.7700    -3.2440     0.2520 hc         1 JF4       0.072033
     41 H14         -0.6540    -0.3250     1.7130 hn         1 JF4       0.484000
@<TRIPOS>BOND
     1     1     2 2   
     2     1    16 1   
     3     1    17 1   
     4     2     3 1   
     5     2     4 1   
     6     3    18 1   
     7     3    19 1   
     8     3    20 1   
     9     4     5 1   
    10     4    10 1   
    11     4    21 1   
    12     5     6 1   
    13     5    22 1   
    14     5    23 1   
    15     6     7 1   
    16     6    24 1   
    17     6    25 1   
    18     7     8 1   
    19     7     9 1   
    20     7    11 1   
    21     8    26 1   
    22     8    27 1   
    23     8    28 1   
    24     9    10 1   
    25     9    14 1   
    26     9    41 1   
    27    10    29 1   
    28    10    30 1   
    29    11    12 1   
    30    11    31 1   
    31    11    32 1   
    32    12    13 1   
    33    12    33 1   
    34    12    34 1   
    35    13    14 1   
    36    13    35 1   
    37    13    36 1   
    38    14    15 1   
    39    14    37 1   
    40    15    38 1   
    41    15    39 1   
    42    15    40 1   
@<TRIPOS>SUBSTRUCTURE
     1 JF4         1 TEMP              0 ****  ****    0 ROOT
