@<TRIPOS>MOLECULE
JF5
   25    26     1     0     0
SMALL
bcc


@<TRIPOS>ATOM
      1 C10          2.2020    -0.5100     0.0200 ca         1 JF5      -0.099300
      2 C13          4.4380     1.1590     0.0180 ca         1 JF5      -0.117000
      3 C15          2.7790    -0.1050    -1.1800 ca         1 JF5      -0.103000
      4 O01         -1.5390    -2.2860     0.0340 o          1 JF5      -0.554000
      5 C02         -1.3570    -1.0910     0.0240 c          1 JF5       0.696700
      6 C03         -2.4220    -0.0980     0.0160 cc         1 JF5      -0.342900
      7 C04         -3.7780    -0.3700     0.0250 cd         1 JF5      -0.064300
      8 N05         -4.3900     0.8120     0.0120 na         1 JF5       0.000400
      9 N06         -3.5490     1.8470    -0.0040 nd         1 JF5      -0.527800
     10 C07         -2.3490     1.3110    -0.0020 cc         1 JF5       0.365200
     11 O08         -0.1570    -0.5230     0.0170 os         1 JF5      -0.414900
     12 C09          0.9890    -1.3890     0.0220 c3         1 JF5       0.191700
     13 C11          2.7540    -0.0680     1.2190 ca         1 JF5      -0.103000
     14 C12          3.8670     0.7610     1.2200 ca         1 JF5      -0.133000
     15 C14          3.8930     0.7240    -1.1830 ca         1 JF5      -0.133000
     16 H1           5.3090     1.8010     0.0170 ha         1 JF5       0.131000
     17 H2           2.3590    -0.4450    -2.1200 ha         1 JF5       0.133000
     18 H3          -4.3210    -1.3010     0.0390 h4         1 JF5       0.189000
     19 H4          -5.3850     0.9760     0.0160 hn         1 JF5       0.325700
     20 H5          -1.4700     1.9370    -0.0140 h4         1 JF5       0.054100
     21 H6           0.9710    -2.0330    -0.8600 h1         1 JF5       0.055200
     22 H7           0.9690    -2.0250     0.9090 h1         1 JF5       0.055200
     23 H8           2.3140    -0.3790     2.1600 ha         1 JF5       0.133000
     24 H9           4.2910     1.0920     2.1590 ha         1 JF5       0.132000
     25 H10          4.3360     1.0260    -2.1230 ha         1 JF5       0.132000
@<TRIPOS>BOND
     1     1     3 ar  
     2     1    12 1   
     3     1    13 ar  
     4     2    14 ar  
     5     2    15 ar  
     6     2    16 1   
     7     3    15 ar  
     8     3    17 1   
     9     4     5 2   
    10     5     6 1   
    11     5    11 1   
    12     6     7 2   
    13     6    10 1   
    14     7     8 1   
    15     7    18 1   
    16     8     9 1   
    17     8    19 1   
    18     9    10 2   
    19    10    20 1   
    20    11    12 1   
    21    12    21 1   
    22    12    22 1   
    23    13    14 ar  
    24    13    23 1   
    25    14    24 1   
    26    15    25 1   
@<TRIPOS>SUBSTRUCTURE
     1 JF5         1 TEMP              0 ****  ****    0 ROOT
