@<TRIPOS>MOLECULE
JF5
   25    26     1     0     0
SMALL
No Charge or Current Charge


@<TRIPOS>ATOM
      1 C10          2.2200    -0.4810     0.0260 ca         1 JF5      -0.099300
      2 C13          4.5210     1.1500     0.0130 ca         1 JF5      -0.099000
      3 C15          2.8010    -0.0810    -1.1940 ca         1 JF5      -0.085000
      4 O01         -1.5830    -2.3080     0.0380 o          1 JF5      -0.505000
      5 C02         -1.4140    -1.0960     0.0260 c          1 JF5       0.647700
      6 C03         -2.5220    -0.1320     0.0140 cc         1 JF5      -0.277600
      7 C04         -3.8560    -0.4160     0.0150 cd         1 JF5      -0.097000
      8 N05         -4.4750     0.8420     0.0010 na         1 JF5       0.000800
      9 N06         -3.5510     1.8930    -0.0080 nd         1 JF5      -0.527800
     10 C07         -2.3930     1.2600     0.0010 cc         1 JF5       0.299900
     11 O08         -0.1790    -0.5070     0.0220 os         1 JF5      -0.438100
     12 C09          0.9770    -1.3610     0.0330 c3         1 JF5       0.214900
     13 C11          2.7970    -0.0560     1.2390 ca         1 JF5      -0.085000
     14 C12          3.9440     0.7560     1.2330 ca         1 JF5      -0.115000
     15 C14          3.9490     0.7310    -1.2000 ca         1 JF5      -0.115000
     16 H1           5.4090     1.7790     0.0080 ha         1 JF5       0.113000
     17 H2           2.3630    -0.3990    -2.1380 ha         1 JF5       0.115000
     18 H3          -4.3970    -1.3570     0.0240 h4         1 JF5       0.171000
     19 H4          -5.4800     1.0150    -0.0020 hn         1 JF5       0.376000
     20 H5          -1.4780     1.8400    -0.0040 h4         1 JF5       0.054100
     21 H6           0.9860    -2.0160    -0.8490 h1         1 JF5       0.055200
     22 H7           0.9830    -1.9980     0.9270 h1         1 JF5       0.055200
     23 H8           2.3550    -0.3540     2.1880 ha         1 JF5       0.115000
     24 H9           4.3850     1.0810     2.1720 ha         1 JF5       0.114000
     25 H10          4.3930     1.0370    -2.1450 ha         1 JF5       0.114000
@<TRIPOS>BOND
     1     1     3 ar  
     2     1    12 1   
     3     1    13 ar  
     4     2    14 ar  
     5     2    15 ar  
     6     2    16 1   
     7     3    15 ar  
     8     3    17 1   
     9     4     5 2   
    10     5     6 1   
    11     5    11 1   
    12     6     7 2   
    13     6    10 1   
    14     7     8 1   
    15     7    18 1   
    16     8     9 1   
    17     8    19 1   
    18     9    10 2   
    19    10    20 1   
    20    11    12 1   
    21    12    21 1   
    22    12    22 1   
    23    13    14 ar  
    24    13    23 1   
    25    14    24 1   
    26    15    25 1   
@<TRIPOS>SUBSTRUCTURE
     1 JF5         1 TEMP              0 ****  ****    0 ROOT
