@<TRIPOS>MOLECULE
JF6
   19    20     1     0     0
SMALL
abcg2


@<TRIPOS>ATOM
      1 C1          -3.4620     0.0410     0.0140 ca         1 JF6      -0.094000
      2 C2          -2.8320    -1.0970    -0.4750 ca         1 JF6      -0.109500
      3 C6          -2.7040     1.0850     0.5240 ca         1 JF6      -0.109500
      4 C3          -1.4480    -1.1870    -0.4610 ca         1 JF6      -0.085500
      5 C5          -1.3200     0.9980     0.5430 ca         1 JF6      -0.085500
      6 C4          -0.6820    -0.1380     0.0460 ca         1 JF6      -0.134500
      7 C7           0.7770    -0.2390     0.0700 cc         1 JF6       0.258500
      8 C8           1.7640     0.7420    -0.2940 cc         1 JF6       0.480900
      9 N11          1.4070    -1.3130     0.4180 nd         1 JF6      -0.311300
     10 N9           2.9370     0.2040    -0.1380 nd         1 JF6      -0.425300
     11 N12          1.5500     1.9770    -0.8030 nv         1 JF6      -1.040900
     12 O10          2.7100    -1.0620     0.2980 os         1 JF6       0.104600
     13 H1          -4.5420     0.1110    -0.0020 ha         1 JF6       0.117000
     14 H2          -3.4170    -1.9140    -0.8750 ha         1 JF6       0.118500
     15 H6          -3.1890     1.9690     0.9170 ha         1 JF6       0.118500
     16 H3          -0.9610    -2.0680    -0.8570 ha         1 JF6       0.118000
     17 H5          -0.7460     1.8080     0.9760 ha         1 JF6       0.118000
     18 H121         0.6620     2.4110    -0.6210 hn         1 JF6       0.481000
     19 H122         2.3270     2.6180    -0.7920 hn         1 JF6       0.481000
@<TRIPOS>BOND
     1     1     2 ar  
     2     1     3 ar  
     3     1    13 1   
     4     2     4 ar  
     5     2    14 1   
     6     3     5 ar  
     7     3    15 1   
     8     4     6 ar  
     9     4    16 1   
    10     5     6 ar  
    11     5    17 1   
    12     6     7 1   
    13     7     8 1   
    14     7     9 2   
    15     8    10 2   
    16     8    11 1   
    17     9    12 1   
    18    10    12 1   
    19    11    18 1   
    20    11    19 1   
@<TRIPOS>SUBSTRUCTURE
     1 JF6         1 TEMP              0 ****  ****    0 ROOT
