@<TRIPOS>MOLECULE
JF6
   19    20     1     0     0
SMALL
No Charge or Current Charge


@<TRIPOS>ATOM
      1 C1          -3.5200     0.0170     0.0610 ca         1 JF6      -0.094000
      2 C2          -2.8940    -1.1920    -0.2710 ca         1 JF6      -0.109500
      3 C6          -2.7390     1.1460     0.3430 ca         1 JF6      -0.109500
      4 C3          -1.4920    -1.2690    -0.3320 ca         1 JF6      -0.085500
      5 C5          -1.3360     1.0730     0.2810 ca         1 JF6      -0.085500
      6 C4          -0.6830    -0.1320    -0.0800 ca         1 JF6      -0.134500
      7 C7           0.7960    -0.2610    -0.1320 cc         1 JF6       0.258500
      8 C8           1.7970     0.7600    -0.1130 cc         1 JF6       0.480900
      9 N11          1.3830    -1.4410    -0.1430 nd         1 JF6      -0.311300
     10 N9           3.0090     0.2940    -0.1120 nd         1 JF6      -0.425300
     11 N12          1.6280     2.1140    -0.1630 nv         1 JF6      -1.040900
     12 O10          2.7810    -1.1170    -0.1300 os         1 JF6       0.104600
     13 H1          -4.6050     0.0760     0.1100 ha         1 JF6       0.117000
     14 H2          -3.4950    -2.0740    -0.4810 ha         1 JF6       0.118500
     15 H6          -3.2200     2.0810     0.6210 ha         1 JF6       0.118500
     16 H3          -1.0410    -2.2230    -0.5940 ha         1 JF6       0.118000
     17 H5          -0.7780     1.9620     0.5520 ha         1 JF6       0.118000
     18 H121         0.7770     2.4620    -0.5940 hn         1 JF6       0.481000
     19 H122         2.4630     2.6670    -0.3360 hn         1 JF6       0.481000
@<TRIPOS>BOND
     1     1     2 ar  
     2     1     3 ar  
     3     1    13 1   
     4     2     4 ar  
     5     2    14 1   
     6     3     5 ar  
     7     3    15 1   
     8     4     6 ar  
     9     4    16 1   
    10     5     6 ar  
    11     5    17 1   
    12     6     7 1   
    13     7     8 1   
    14     7     9 2   
    15     8    10 2   
    16     8    11 1   
    17     9    12 1   
    18    10    12 1   
    19    11    18 1   
    20    11    19 1   
@<TRIPOS>SUBSTRUCTURE
     1 JF6         1 TEMP              0 ****  ****    0 ROOT
