@<TRIPOS>MOLECULE
JF8
   26    28     1     0     0
SMALL
No Charge or Current Charge


@<TRIPOS>ATOM
      1 C10          2.5540     0.6120    -0.1470 ca         1 JF8      -0.060200
      2 C13          4.3440    -0.7110     0.1790 cc         1 JF8      -0.242200
      3 C15         -2.4120    -0.3440    -0.0010 cc         1 JF8      -0.227000
      4 C02         -3.4640     0.5070    -0.0110 cd         1 JF8       0.293000
      5 N03         -2.9230     1.7830    -0.0100 na         1 JF8      -0.046200
      6 N04         -1.5300     1.7580    -0.0040 nd         1 JF8      -0.522800
      7 C05         -1.2370     0.4610    -0.0010 cc         1 JF8       0.395500
      8 C06          0.1890     0.0320     0.0560 ca         1 JF8      -0.120500
      9 C07          0.6040    -1.2810     0.4400 ca         1 JF8      -0.114000
     10 C08          1.9690    -1.6330     0.5030 ca         1 JF8      -0.066000
     11 C09          2.9160    -0.6550     0.1950 ca         1 JF8      -0.086800
     12 N11          3.6730     1.3950    -0.3900 na         1 JF8      -0.222700
     13 C12          4.7950     0.5530    -0.1820 cd         1 JF8      -0.160100
     14 C14          1.2070     0.9920    -0.2170 ca         1 JF8      -0.091000
     15 N17         -2.5930    -2.9170    -0.1220 n1         1 JF8      -0.490000
     16 H1           4.9730    -1.5700     0.4040 ha         1 JF8       0.206000
     17 H2          -5.4740     1.0430    -0.1690 hn         1 JF8       0.479000
     18 H3          -5.1710    -0.6720    -0.1470 hn         1 JF8       0.479000
     19 H4          -3.4480     2.6530    -0.0130 hn         1 JF8       0.373000
     20 H5          -0.1060    -2.0440     0.7280 ha         1 JF8       0.121000
     21 H6           2.2760    -2.6340     0.7960 ha         1 JF8       0.118000
     22 H7           3.6860     2.3740    -0.6610 hn         1 JF8       0.349000
     23 H8           5.8150     0.9130    -0.3040 h4         1 JF8       0.211000
     24 H9           0.9620     2.0140    -0.4960 ha         1 JF8       0.124000
     25 C16         -2.4930    -1.7550    -0.0620 cg         1 JF8       0.375000
     26 N01         -4.8130     0.2770    -0.0370 nv         1 JF8      -1.075000
@<TRIPOS>BOND
     1     1    11 ar  
     2     1    12 1   
     3     1    14 ar  
     4     2    11 1   
     5     2    13 2   
     6     2    16 1   
     7     3     4 2   
     8     3     7 1   
     9     3    25 1   
    10     4     5 1   
    11     4    26 1   
    12     5     6 1   
    13     5    19 1   
    14     6     7 2   
    15     7     8 1   
    16     8     9 ar  
    17     8    14 ar  
    18     9    10 ar  
    19     9    20 1   
    20    10    11 ar  
    21    10    21 1   
    22    12    13 1   
    23    12    22 1   
    24    13    23 1   
    25    14    24 1   
    26    15    25 3   
    27    17    26 1   
    28    18    26 1   
@<TRIPOS>SUBSTRUCTURE
     1 JF8         1 TEMP              0 ****  ****    0 ROOT
