@<TRIPOS>MOLECULE
JF8
   26    28     1     0     0
SMALL
abcg2


@<TRIPOS>ATOM
      1 C10          2.5020     0.6090    -0.1910 ca         1 JF8      -0.060200
      2 C13          4.3320    -0.7030     0.1770 cc         1 JF8      -0.242200
      3 C15         -2.3450    -0.3650    -0.0420 cc         1 JF8      -0.227000
      4 C02         -3.4390     0.5070     0.0030 cd         1 JF8       0.293000
      5 N03         -2.9140     1.7180     0.2130 na         1 JF8      -0.046200
      6 N04         -1.5690     1.7130     0.3170 nd         1 JF8      -0.522800
      7 C05         -1.2030     0.4660     0.1630 cc         1 JF8       0.395500
      8 C06          0.2110     0.0820     0.1850 ca         1 JF8      -0.120500
      9 C07          0.6010    -1.1900     0.6540 ca         1 JF8      -0.114000
     10 C08          1.9270    -1.5660     0.7000 ca         1 JF8      -0.066000
     11 C09          2.9080    -0.6640     0.2720 ca         1 JF8      -0.086800
     12 N11          3.6280     1.2910    -0.5470 na         1 JF8      -0.222700
     13 C12          4.7220     0.5060    -0.3260 cd         1 JF8      -0.160100
     14 C14          1.1670     0.9930    -0.2410 ca         1 JF8      -0.091000
     15 N17         -2.5120    -2.8640    -0.5540 n1         1 JF8      -0.490000
     16 H1           4.9840    -1.5180     0.4460 ha         1 JF8       0.206000
     17 H2          -5.3640     1.0190    -0.3510 hn         1 JF8       0.479000
     18 H3          -5.0320    -0.6250    -0.4820 hn         1 JF8       0.479000
     19 H4          -3.4180     2.5830     0.3300 hn         1 JF8       0.373000
     20 H5          -0.1500    -1.8850     1.0070 ha         1 JF8       0.121000
     21 H6           2.2020    -2.5450     1.0700 ha         1 JF8       0.118000
     22 H7           3.6560     2.2250    -0.9200 hn         1 JF8       0.349000
     23 H8           5.7110     0.8750    -0.5450 h4         1 JF8       0.211000
     24 H9           0.8780     1.9680    -0.6120 ha         1 JF8       0.124000
     25 C16         -2.4220    -1.7360    -0.3190 cg         1 JF8       0.375000
     26 N01         -4.7620     0.2580    -0.0800 nv         1 JF8      -1.075000
@<TRIPOS>BOND
     1     1    11 ar  
     2     1    12 1   
     3     1    14 ar  
     4     2    11 1   
     5     2    13 2   
     6     2    16 1   
     7     3     4 2   
     8     3     7 1   
     9     3    25 1   
    10     4     5 1   
    11     4    26 1   
    12     5     6 1   
    13     5    19 1   
    14     6     7 2   
    15     7     8 1   
    16     8     9 ar  
    17     8    14 ar  
    18     9    10 ar  
    19     9    20 1   
    20    10    11 ar  
    21    10    21 1   
    22    12    13 1   
    23    12    22 1   
    24    13    23 1   
    25    14    24 1   
    26    15    25 3   
    27    17    26 1   
    28    18    26 1   
@<TRIPOS>SUBSTRUCTURE
     1 JF8         1 TEMP              0 ****  ****    0 ROOT
