@<TRIPOS>MOLECULE
JF9
   51    54     1     0     0
SMALL
No Charge or Current Charge


@<TRIPOS>ATOM
      1 C1         106.9030   108.6620    85.4840 c6         1 JF9      -0.074400
      2 C2         106.5570   107.6940    84.3130 c6         1 JF9      -0.073150
      3 C3         107.7560   107.4350    83.3540 c6         1 JF9      -0.085150
      4 C4         108.6950   108.6720    83.2870 c6         1 JF9       0.117700
      5 C5         109.3170   109.0180    84.6750 c6         1 JF9      -0.085150
      6 C6         108.4030   108.5990    85.8630 c6         1 JF9      -0.073150
      7 C8         109.4810   109.6870    81.1040 c6         1 JF9       0.117700
      8 C9         108.0370   109.7040    80.4880 c6         1 JF9      -0.085150
      9 C10        107.2380   110.9930    80.8140 c6         1 JF9      -0.073150
     10 C11        107.9920   112.2730    80.3580 c6         1 JF9      -0.074400
     11 C12        109.5330   112.1870    80.5550 c6         1 JF9      -0.073150
     12 C13        109.9330   111.1010    81.5820 c6         1 JF9      -0.085150
     13 C16        112.0260   107.9280    81.3320 cc         1 JF9       0.229500
     14 C19        114.0060   107.4190    80.4910 cd         1 JF9       0.220300
     15 C20        113.0260   106.9270    81.2800 cc         1 JF9      -0.223000
     16 C21        115.2900   106.7770    80.1020 cx         1 JF9      -0.196000
     17 C22        115.8830   106.9910    78.7260 cx         1 JF9      -0.105900
     18 C23        116.5530   107.5940    79.9390 cx         1 JF9      -0.105900
     19 N7         109.7010   108.6480    82.1710 n          1 JF9      -0.390800
     20 N17        112.3780   109.0010    80.6240 nd         1 JF9      -0.348300
     21 O15        110.7110   106.7130    82.9030 o          1 JF9      -0.582100
     22 O18        113.6640   108.6710    80.0650 os         1 JF9      -0.075700
     23 H1         106.6470   109.6920    85.1980 hc         1 JF9       0.037950
     24 H2         106.2810   108.4240    86.3580 hc         1 JF9       0.037950
     25 H3         105.7120   108.1090    83.7470 hc         1 JF9       0.042450
     26 H4         106.2090   106.7330    84.7150 hc         1 JF9       0.042450
     27 H5         107.3820   107.1680    82.3570 hc         1 JF9       0.050575
     28 H6         108.3120   106.5610    83.7140 hc         1 JF9       0.050575
     29 H7         108.0160   109.5100    83.0890 h1         1 JF9       0.054700
     30 H8         110.2950   108.5360    84.8000 hc         1 JF9       0.050575
     31 H9         109.5080   110.0990    84.7180 hc         1 JF9       0.050575
     32 H10        108.6520   107.5750    86.1760 hc         1 JF9       0.042450
     33 H11        108.6030   109.2420    86.7320 hc         1 JF9       0.042450
     34 H12        110.0900   109.4210    80.2360 h1         1 JF9       0.054700
     35 H13        107.4650   108.8170    80.7830 hc         1 JF9       0.050575
     36 H14        108.1270   109.6300    79.3960 hc         1 JF9       0.050575
     37 H15        107.0400   111.0520    81.8930 hc         1 JF9       0.042450
     38 H16        106.2520   110.9550    80.3320 hc         1 JF9       0.042450
     39 H17        107.7780   112.4700    79.2980 hc         1 JF9       0.037950
     40 H18        107.5960   113.1350    80.9110 hc         1 JF9       0.037950
     41 H19        110.0130   111.9610    79.5920 hc         1 JF9       0.042450
     42 H20        109.9240   113.1650    80.8680 hc         1 JF9       0.042450
     43 H21        111.0190   111.1180    81.7390 hc         1 JF9       0.050575
     44 H22        109.4830   111.3430    82.5540 hc         1 JF9       0.050575
     45 H23        112.9990   105.9640    81.7780 ha         1 JF9       0.160000
     46 H24        115.4070   105.7840    80.5310 hc         1 JF9       0.098700
     47 H25        115.3720   107.6660    78.0430 hc         1 JF9       0.081700
     48 H26        116.3700   106.1450    78.2460 hc         1 JF9       0.081700
     49 H27        117.4900   107.1530    80.2730 hc         1 JF9       0.081700
     50 H28        116.4900   108.6730    80.0680 hc         1 JF9       0.081700
     51 C14        110.7850   107.7030    82.1790 c          1 JF9       0.529600
@<TRIPOS>BOND
     1     1     2 1   
     2     1     6 1   
     3     1    23 1   
     4     1    24 1   
     5     2     3 1   
     6     2    25 1   
     7     2    26 1   
     8     3     4 1   
     9     3    27 1   
    10     3    28 1   
    11     4     5 1   
    12     4    19 1   
    13     4    29 1   
    14     5     6 1   
    15     5    30 1   
    16     5    31 1   
    17     6    32 1   
    18     6    33 1   
    19     7     8 1   
    20     7    12 1   
    21     7    19 1   
    22     7    34 1   
    23     8     9 1   
    24     8    35 1   
    25     8    36 1   
    26     9    10 1   
    27     9    37 1   
    28     9    38 1   
    29    10    11 1   
    30    10    39 1   
    31    10    40 1   
    32    11    12 1   
    33    11    41 1   
    34    11    42 1   
    35    12    43 1   
    36    12    44 1   
    37    13    15 1   
    38    13    20 2   
    39    13    51 1   
    40    14    15 2   
    41    14    16 1   
    42    14    22 1   
    43    15    45 1   
    44    16    17 1   
    45    16    18 1   
    46    16    46 1   
    47    17    18 1   
    48    17    47 1   
    49    17    48 1   
    50    18    49 1   
    51    18    50 1   
    52    19    51 1   
    53    20    22 1   
    54    21    51 2   
@<TRIPOS>SUBSTRUCTURE
     1 JF9         1 TEMP              0 ****  ****    0 ROOT
