@<TRIPOS>MOLECULE
JF9
   51    54     1     0     0
SMALL
bcc


@<TRIPOS>ATOM
      1 C1         107.1470   108.2050    85.8670 c6         1 JF9      -0.074400
      2 C2         106.6480   107.9000    84.4410 c6         1 JF9      -0.073150
      3 C3         107.8030   107.6440    83.4770 c6         1 JF9      -0.085150
      4 C4         108.6240   108.9290    83.3490 c6         1 JF9       0.117700
      5 C5         108.9810   109.5310    84.7330 c6         1 JF9      -0.085150
      6 C6         108.6240   108.6050    85.8900 c6         1 JF9      -0.073150
      7 C8         109.7430   109.6020    81.2040 c6         1 JF9       0.117700
      8 C9         108.4800   109.3460    80.3460 c6         1 JF9      -0.085150
      9 C10        107.5220   110.5320    80.3160 c6         1 JF9      -0.073150
     10 C11        108.2070   111.7950    79.7800 c6         1 JF9      -0.074400
     11 C12        109.6810   111.8870    80.2100 c6         1 JF9      -0.073150
     12 C13        109.9440   111.0930    81.4830 c6         1 JF9      -0.085150
     13 C16        112.0350   108.0800    81.9060 cc         1 JF9       0.294800
     14 C19        113.6990   107.4970    80.6300 cd         1 JF9       0.330000
     15 C20        112.5150   107.0230    81.0990 cc         1 JF9      -0.371600
     16 C21        114.7040   106.9160    79.7460 cx         1 JF9      -0.196000
     17 C22        115.4660   107.7730    78.7670 cx         1 JF9      -0.105900
     18 C23        116.1700   107.2020    79.9470 cx         1 JF9      -0.105900
     19 N7         109.7730   108.8140    82.4410 n          1 JF9      -0.457800
     20 N17        112.8600   109.0850    81.9240 nd         1 JF9      -0.348300
     21 O15        110.8870   107.3660    83.7930 o          1 JF9      -0.582100
     22 O18        113.9030   108.7210    81.1220 os         1 JF9      -0.120100
     23 H1         106.5420   109.0040    86.3020 hc         1 JF9       0.037950
     24 H2         107.0050   107.3340    86.5110 hc         1 JF9       0.037950
     25 H3         106.0630   108.7420    84.0610 hc         1 JF9       0.042450
     26 H4         105.9720   107.0440    84.4480 hc         1 JF9       0.042450
     27 H5         107.4170   107.3610    82.4950 hc         1 JF9       0.050575
     28 H6         108.4120   106.8110    83.8300 hc         1 JF9       0.050575
     29 H7         107.9640   109.6450    82.8600 h1         1 JF9       0.054700
     30 H8         110.0380   109.7960    84.7760 hc         1 JF9       0.050575
     31 H9         108.4350   110.4710    84.8500 hc         1 JF9       0.050575
     32 H10        109.2490   107.7130    85.8410 hc         1 JF9       0.042450
     33 H11        108.8620   109.0930    86.8380 hc         1 JF9       0.042450
     34 H12        110.5920   109.2750    80.6070 h1         1 JF9       0.054700
     35 H13        107.9690   108.4430    80.6820 hc         1 JF9       0.050575
     36 H14        108.8030   109.1340    79.3240 hc         1 JF9       0.050575
     37 H15        107.1310   110.7210    81.3190 hc         1 JF9       0.042450
     38 H16        106.6530   110.2860    79.7030 hc         1 JF9       0.042450
     39 H17        108.1450   111.8140    78.6900 hc         1 JF9       0.037950
     40 H18        107.6600   112.6730    80.1310 hc         1 JF9       0.037950
     41 H19        110.3280   111.4960    79.4190 hc         1 JF9       0.042450
     42 H20        109.9720   112.9290    80.3470 hc         1 JF9       0.042450
     43 H21        110.9630   111.2530    81.8410 hc         1 JF9       0.050575
     44 H22        109.2770   111.4370    82.2810 hc         1 JF9       0.050575
     45 H23        112.0510   106.0720    80.9000 ha         1 JF9       0.178000
     46 H24        114.4450   105.9170    79.4170 hc         1 JF9       0.098700
     47 H25        115.2600   108.8350    78.7560 hc         1 JF9       0.081700
     48 H26        115.6540   107.3420    77.7920 hc         1 JF9       0.081700
     49 H27        116.8510   106.3750    79.7960 hc         1 JF9       0.081700
     50 H28        116.4500   107.8720    80.7500 hc         1 JF9       0.081700
     51 C14        110.8250   108.0650    82.7920 c          1 JF9       0.596600
@<TRIPOS>BOND
     1     1     2 1   
     2     1     6 1   
     3     1    23 1   
     4     1    24 1   
     5     2     3 1   
     6     2    25 1   
     7     2    26 1   
     8     3     4 1   
     9     3    27 1   
    10     3    28 1   
    11     4     5 1   
    12     4    19 1   
    13     4    29 1   
    14     5     6 1   
    15     5    30 1   
    16     5    31 1   
    17     6    32 1   
    18     6    33 1   
    19     7     8 1   
    20     7    12 1   
    21     7    19 1   
    22     7    34 1   
    23     8     9 1   
    24     8    35 1   
    25     8    36 1   
    26     9    10 1   
    27     9    37 1   
    28     9    38 1   
    29    10    11 1   
    30    10    39 1   
    31    10    40 1   
    32    11    12 1   
    33    11    41 1   
    34    11    42 1   
    35    12    43 1   
    36    12    44 1   
    37    13    15 1   
    38    13    20 2   
    39    13    51 1   
    40    14    15 2   
    41    14    16 1   
    42    14    22 1   
    43    15    45 1   
    44    16    17 1   
    45    16    18 1   
    46    16    46 1   
    47    17    18 1   
    48    17    47 1   
    49    17    48 1   
    50    18    49 1   
    51    18    50 1   
    52    19    51 1   
    53    20    22 1   
    54    21    51 2   
@<TRIPOS>SUBSTRUCTURE
     1 JF9         1 TEMP              0 ****  ****    0 ROOT
