@<TRIPOS>MOLECULE
JFA
   39    42     1     0     0
SMALL
abcg2


@<TRIPOS>ATOM
      1 C1          -4.9260    -1.4800     1.2690 ca         1 JFA      -0.099000
      2 C2          -3.7080    -0.9660     1.6870 ca         1 JFA      -0.097000
      3 C3          -3.1140     0.1280     1.0670 ca         1 JFA      -0.077300
      4 C4          -1.7700     0.6280     1.5330 c3         1 JFA       0.041100
      5 C5          -0.6660     0.1780     0.6430 cc         1 JFA      -0.071600
      6 C6           0.1670     0.8730    -0.1490 cd         1 JFA      -0.133400
      7 N1           3.9490    -0.8580    -0.5390 na         1 JFA      -0.298600
      8 N2           4.1510     1.3270    -0.8760 nc         1 JFA      -0.573100
      9 N3          -0.3430    -1.1620     0.4790 ns         1 JFA      -0.494600
     10 C8           3.3980     0.2760    -1.0440 cd         1 JFA       0.377800
     11 C16         -3.7970     0.7000    -0.0040 ca         1 JFA       0.137000
     12 C17         -5.0180     0.2150    -0.4450 ca         1 JFA      -0.095000
     13 C           -5.5690    -0.8790     0.2010 ca         1 JFA       0.128000
     14 CL          -7.0930    -1.4940    -0.3400 cl         1 JFA      -0.187000
     15 C15          0.6920    -1.3120    -0.3950 c          1 JFA       0.564000
     16 O            1.2560    -2.3450    -0.7470 o          1 JFA      -0.611000
     17 N            0.9890    -0.0380    -0.7970 n          1 JFA      -0.295000
     18 C14          5.2690     0.8670    -0.2200 ca         1 JFA       0.062400
     19 C9           5.1560    -0.5160     0.0070 ca         1 JFA      -0.073200
     20 C13          6.4040     1.5520     0.2130 ca         1 JFA      -0.048000
     21 C12          7.3890     0.8280     0.8600 ca         1 JFA      -0.137000
     22 C11          7.2580    -0.5530     1.0780 ca         1 JFA      -0.093000
     23 C10          6.1410    -1.2520     0.6570 ca         1 JFA      -0.113000
     24 H1          -5.3640    -2.3300     1.7730 ha         1 JFA       0.136000
     25 H2          -3.2070    -1.4300     2.5280 ha         1 JFA       0.119000
     26 H3          -1.7560     1.7180     1.5810 hc         1 JFA       0.071200
     27 H4          -1.5960     0.2720     2.5510 hc         1 JFA       0.071200
     28 H5           0.2290     1.9320    -0.3290 h4         1 JFA       0.236000
     29 H6           1.8830     1.2590    -2.1340 h1         1 JFA       0.085700
     30 H7           2.0500    -0.4420    -2.5340 h1         1 JFA       0.085700
     31 H10         -0.7650    -1.9350     0.9680 hn         1 JFA       0.466000
     32 H11         -5.5280     0.6850    -1.2740 ha         1 JFA       0.147000
     33 H12          6.5080     2.6160     0.0450 ha         1 JFA       0.127000
     34 H13          8.2800     1.3330     1.2080 ha         1 JFA       0.113000
     35 H14          8.0530    -1.0830     1.5880 ha         1 JFA       0.112000
     36 H15          6.0410    -2.3160     0.8250 ha         1 JFA       0.120000
     37 C7           2.0620     0.2740    -1.7100 c3         1 JFA       0.105700
     38 CL1         -3.1310     2.0720    -0.8240 cl         1 JFA      -0.191000
     39 H8           3.5220    -1.7740    -0.5640 hn         1 JFA       0.383000
@<TRIPOS>BOND
     1     1     2 ar  
     2     1    13 ar  
     3     1    24 1   
     4     2     3 ar  
     5     2    25 1   
     6     3     4 1   
     7     3    11 ar  
     8     4     5 1   
     9     4    26 1   
    10     4    27 1   
    11     5     6 2   
    12     5     9 1   
    13     6    17 1   
    14     6    28 1   
    15     7    10 1   
    16     7    19 1   
    17     7    39 1   
    18     8    10 2   
    19     8    18 1   
    20     9    15 1   
    21     9    31 1   
    22    10    37 1   
    23    11    12 ar  
    24    11    38 1   
    25    12    13 ar  
    26    12    32 1   
    27    13    14 1   
    28    15    16 2   
    29    15    17 1   
    30    17    37 1   
    31    18    19 ar  
    32    18    20 ar  
    33    19    23 ar  
    34    20    21 ar  
    35    20    33 1   
    36    21    22 ar  
    37    21    34 1   
    38    22    23 ar  
    39    22    35 1   
    40    23    36 1   
    41    29    37 1   
    42    30    37 1   
@<TRIPOS>SUBSTRUCTURE
     1 JFA         1 TEMP              0 ****  ****    0 ROOT
