@<TRIPOS>MOLECULE
JFA
   39    42     1     0     0
SMALL
No Charge or Current Charge


@<TRIPOS>ATOM
      1 C1          -5.1230    -1.5470     0.9650 ca         1 JFA      -0.099000
      2 C2          -3.9160    -1.0990     1.5310 ca         1 JFA      -0.097000
      3 C3          -3.2880     0.0660     1.0450 ca         1 JFA      -0.077300
      4 C4          -1.9730     0.5260     1.6730 c3         1 JFA       0.041100
      5 C5          -0.7720     0.1470     0.8440 cc         1 JFA      -0.071600
      6 C6           0.0270     0.8620    -0.0130 cd         1 JFA      -0.133400
      7 N1           4.0030    -0.8560    -0.3140 na         1 JFA      -0.298600
      8 N2           4.2890     1.3290    -1.0030 nc         1 JFA      -0.573100
      9 N3          -0.2840    -1.1440     0.8340 ns         1 JFA      -0.494600
     10 C8           3.4510     0.2740    -0.9310 cd         1 JFA       0.377800
     11 C16         -3.8880     0.7770    -0.0230 ca         1 JFA       0.137000
     12 C17         -5.0930     0.3250    -0.5850 ca         1 JFA      -0.095000
     13 C           -5.7090    -0.8350    -0.0920 ca         1 JFA       0.128000
     14 Cl          -7.2180    -1.3970    -0.8000 cl         1 JFA      -0.187000
     15 C15          0.7890    -1.2980     0.0160 c          1 JFA       0.564000
     16 O            1.4330    -2.3130    -0.1890 o          1 JFA      -0.611000
     17 N            0.9790    -0.0190    -0.5160 n          1 JFA      -0.295000
     18 C14          5.4290     0.8400    -0.3880 ca         1 JFA       0.062400
     19 C9           5.2640    -0.4540     0.0220 ca         1 JFA      -0.073200
     20 C13          6.6450     1.5070    -0.1680 ca         1 JFA      -0.048000
     21 C12          7.6870     0.8130     0.4840 ca         1 JFA      -0.137000
     22 C11          7.5020    -0.5260     0.9040 ca         1 JFA      -0.093000
     23 C10          6.2730    -1.1760     0.6720 ca         1 JFA      -0.113000
     24 H1          -5.6020    -2.4460     1.3450 ha         1 JFA       0.136000
     25 H2          -3.4710    -1.6610     2.3500 ha         1 JFA       0.119000
     26 H3          -1.9850     1.6120     1.8250 hc         1 JFA       0.071200
     27 H4          -1.8660     0.1030     2.6790 hc         1 JFA       0.071200
     28 H5           0.0100     1.9050    -0.3200 h4         1 JFA       0.236000
     29 H6           1.8540     1.3120    -1.8980 h1         1 JFA       0.085700
     30 H7           1.9870    -0.3970    -2.3240 h1         1 JFA       0.085700
     31 H10         -0.6530    -1.9330     1.3570 hn         1 JFA       0.466000
     32 H11         -5.5490     0.8740    -1.4030 ha         1 JFA       0.147000
     33 H12          6.7780     2.5350    -0.4940 ha         1 JFA       0.127000
     34 H13          8.6370     1.3100     0.6650 ha         1 JFA       0.113000
     35 H14          8.3090    -1.0540     1.4060 ha         1 JFA       0.112000
     36 H15          6.1150    -2.2050     0.9890 ha         1 JFA       0.120000
     37 C7           2.0440     0.3120    -1.4890 c3         1 JFA       0.105700
     38 Cl1         -3.1560     2.2410    -0.6820 cl         1 JFA      -0.191000
     39 H8           3.5350    -1.7390    -0.1390 hn         1 JFA       0.383000
@<TRIPOS>BOND
     1     1     2 ar  
     2     1    13 ar  
     3     1    24 1   
     4     2     3 ar  
     5     2    25 1   
     6     3     4 1   
     7     3    11 ar  
     8     4     5 1   
     9     4    26 1   
    10     4    27 1   
    11     5     6 2   
    12     5     9 1   
    13     6    17 1   
    14     6    28 1   
    15     7    10 1   
    16     7    19 1   
    17     7    39 1   
    18     8    10 2   
    19     8    18 1   
    20     9    15 1   
    21     9    31 1   
    22    10    37 1   
    23    11    12 ar  
    24    11    38 1   
    25    12    13 ar  
    26    12    32 1   
    27    13    14 1   
    28    15    16 2   
    29    15    17 1   
    30    17    37 1   
    31    18    19 ar  
    32    18    20 ar  
    33    19    23 ar  
    34    20    21 ar  
    35    20    33 1   
    36    21    22 ar  
    37    21    34 1   
    38    22    23 ar  
    39    22    35 1   
    40    23    36 1   
    41    29    37 1   
    42    30    37 1   
@<TRIPOS>SUBSTRUCTURE
     1 JFA         1 TEMP              0 ****  ****    0 ROOT
