@<TRIPOS>MOLECULE
JFB
   38    41     1     0     0
SMALL
No Charge or Current Charge


@<TRIPOS>ATOM
      1 C10          1.4540     1.9090     0.9050 ca         1 JFB      -0.111000
      2 C13         -0.9950     1.5430    -0.3730 ca         1 JFB      -0.055200
      3 C17         -3.2340    -0.7390    -0.7460 ca         1 JFB      -0.075300
      4 C21         -3.4700    -3.1380    -0.4280 ca         1 JFB       0.337900
      5 C22         -3.1720    -2.0460    -1.2630 ca         1 JFB      -0.150000
      6 C24         -1.8380     3.5920     0.0590 cc         1 JFB      -0.237200
      7 C02          4.0300    -1.6320     0.2850 cc         1 JFB       0.293000
      8 N03          2.9040    -2.4200     0.4530 na         1 JFB      -0.045200
      9 N04          1.7250    -1.6930     0.4640 nc         1 JFB      -0.518800
     10 C05          2.1520    -0.4460     0.3180 cd         1 JFB       0.393500
     11 C06          3.5640    -0.3590     0.1890 cd         1 JFB      -0.227000
     12 C07          4.3500     0.7940    -0.0340 ch         1 JFB       0.375000
     13 N08          5.0220     1.7320    -0.2150 n1         1 JFB      -0.490000
     14 C09          1.1830     0.6710     0.2600 ca         1 JFB      -0.120500
     15 C11          0.5100     2.9570     0.8860 ca         1 JFB      -0.067000
     16 C12         -0.7040     2.7340     0.2290 ca         1 JFB      -0.085800
     17 C14         -0.0750     0.4820    -0.3670 ca         1 JFB      -0.086000
     18 N15         -2.2690     1.5880    -0.9270 na         1 JFB      -0.092700
     19 C16         -2.9140     0.4650    -1.6320 c3         1 JFB       0.122900
     20 C18         -3.6060    -0.5970     0.6060 ca         1 JFB      -0.150000
     21 C19         -3.8860    -1.7420     1.3710 ca         1 JFB       0.337900
     22 N20         -3.8230    -2.9980     0.8710 nb         1 JFB      -0.659000
     23 C23         -2.7920     2.8730    -0.6520 cd         1 JFB      -0.158100
     24 H1           2.3890     2.0600     1.4380 ha         1 JFB       0.121000
     25 H2          -3.4260    -4.1560    -0.8110 h4         1 JFB       0.020100
     26 H3          -2.8960    -2.2250    -2.2990 ha         1 JFB       0.127000
     27 H4          -1.9500     4.6140     0.4160 ha         1 JFB       0.208000
     28 H5           5.4500    -3.1480     0.1630 hn         1 JFB       0.479000
     29 H6           6.0770    -1.5360    -0.0310 hn         1 JFB       0.479000
     30 H7           2.9060    -3.4300     0.5550 hn         1 JFB       0.374000
     31 H8           0.7160     3.9060     1.3760 ha         1 JFB       0.119000
     32 H9          -0.3210    -0.4640    -0.8430 ha         1 JFB       0.128000
     33 H10         -2.2520     0.1520    -2.4500 h1         1 JFB       0.066700
     34 H11         -3.8440     0.8280    -2.0850 h1         1 JFB       0.066700
     35 H12         -3.6780     0.3840     1.0690 ha         1 JFB       0.127000
     36 H13         -4.1730    -1.6510     2.4180 h4         1 JFB       0.020100
     37 H14         -3.7860     3.1710    -0.9750 h4         1 JFB       0.211000
     38 N01          5.2960    -2.1410     0.2250 nv         1 JFB      -1.075000
@<TRIPOS>BOND
     1     1    14 ar  
     2     1    15 ar  
     3     1    24 1   
     4     2    16 ar  
     5     2    17 ar  
     6     2    18 1   
     7     3     5 ar  
     8     3    19 1   
     9     3    20 ar  
    10     4     5 ar  
    11     4    22 ar  
    12     4    25 1   
    13     5    26 1   
    14     6    16 1   
    15     6    23 2   
    16     6    27 1   
    17     7     8 1   
    18     7    11 2   
    19     7    38 1   
    20     8     9 1   
    21     8    30 1   
    22     9    10 2   
    23    10    11 1   
    24    10    14 1   
    25    11    12 1   
    26    12    13 3   
    27    14    17 ar  
    28    15    16 ar  
    29    15    31 1   
    30    17    32 1   
    31    18    19 1   
    32    18    23 1   
    33    19    33 1   
    34    19    34 1   
    35    20    21 ar  
    36    20    35 1   
    37    21    22 ar  
    38    21    36 1   
    39    23    37 1   
    40    28    38 1   
    41    29    38 1   
@<TRIPOS>SUBSTRUCTURE
     1 JFB         1 TEMP              0 ****  ****    0 ROOT
