@<TRIPOS>MOLECULE
JFB
   38    41     1     0     0
SMALL
abcg2


@<TRIPOS>ATOM
      1 C10          1.4390     1.8840     0.8650 ca         1 JFB      -0.111000
      2 C13         -0.9760     1.4670    -0.3770 ca         1 JFB      -0.055200
      3 C17         -3.2260    -0.7170    -0.7090 ca         1 JFB      -0.075300
      4 C21         -3.5060    -3.0620    -0.3320 ca         1 JFB       0.337900
      5 C22         -3.1490    -2.0220    -1.1770 ca         1 JFB      -0.150000
      6 C24         -1.8850     3.5140     0.0490 cc         1 JFB      -0.237200
      7 C02          4.0510    -1.6370     0.2510 cc         1 JFB       0.293000
      8 N03          2.9510    -2.3950     0.2660 na         1 JFB      -0.045200
      9 N04          1.8050    -1.6850     0.2780 nc         1 JFB      -0.518800
     10 C05          2.1640    -0.4270     0.2630 cd         1 JFB       0.393500
     11 C06          3.5870    -0.3170     0.2470 cd         1 JFB      -0.227000
     12 C07          4.3990     0.8210     0.1650 ch         1 JFB       0.375000
     13 N08          5.0890     1.7460     0.0930 n1         1 JFB      -0.490000
     14 C09          1.1710     0.6480     0.2410 ca         1 JFB      -0.120500
     15 C11          0.5130     2.9070     0.8700 ca         1 JFB      -0.067000
     16 C12         -0.7210     2.7110     0.2420 ca         1 JFB      -0.085800
     17 C14         -0.0500     0.4320    -0.3850 ca         1 JFB      -0.086000
     18 N15         -2.2300     1.5220    -0.9220 na         1 JFB      -0.092700
     19 C16         -2.8820     0.4400    -1.6120 c3         1 JFB       0.122900
     20 C18         -3.6540    -0.5260     0.5990 ca         1 JFB      -0.150000
     21 C19         -3.9860    -1.6340     1.3620 ca         1 JFB       0.337900
     22 N20         -3.9180    -2.8840     0.9160 nb         1 JFB      -0.659000
     23 C23         -2.7700     2.7520    -0.6560 cd         1 JFB      -0.158100
     24 H1           2.3810     2.0320     1.3750 ha         1 JFB       0.121000
     25 H2          -3.4490    -4.0860    -0.6840 h4         1 JFB       0.020100
     26 H3          -2.8110    -2.2350    -2.1830 ha         1 JFB       0.127000
     27 H4          -2.0470     4.5260     0.3860 ha         1 JFB       0.208000
     28 H5           5.4570    -3.0730     0.0010 hn         1 JFB       0.479000
     29 H6           6.0440    -1.4970     0.0010 hn         1 JFB       0.479000
     30 H7           2.9120    -3.4020     0.2910 hn         1 JFB       0.374000
     31 H8           0.7410     3.8430     1.3630 ha         1 JFB       0.119000
     32 H9          -0.2570    -0.5140    -0.8690 ha         1 JFB       0.128000
     33 H10         -2.2570     0.0950    -2.4380 h1         1 JFB       0.066700
     34 H11         -3.7970     0.8330    -2.0590 h1         1 JFB       0.066700
     35 H12         -3.7320     0.4640     1.0300 ha         1 JFB       0.127000
     36 H13         -4.3240    -1.5020     2.3840 h4         1 JFB       0.020100
     37 H14         -3.7640     2.9910    -1.0030 h4         1 JFB       0.211000
     38 N01          5.3100    -2.1200     0.2940 nv         1 JFB      -1.075000
@<TRIPOS>BOND
     1     1    14 ar  
     2     1    15 ar  
     3     1    24 1   
     4     2    16 ar  
     5     2    17 ar  
     6     2    18 1   
     7     3     5 ar  
     8     3    19 1   
     9     3    20 ar  
    10     4     5 ar  
    11     4    22 ar  
    12     4    25 1   
    13     5    26 1   
    14     6    16 1   
    15     6    23 2   
    16     6    27 1   
    17     7     8 1   
    18     7    11 2   
    19     7    38 1   
    20     8     9 1   
    21     8    30 1   
    22     9    10 2   
    23    10    11 1   
    24    10    14 1   
    25    11    12 1   
    26    12    13 3   
    27    14    17 ar  
    28    15    16 ar  
    29    15    31 1   
    30    17    32 1   
    31    18    19 1   
    32    18    23 1   
    33    19    33 1   
    34    19    34 1   
    35    20    21 ar  
    36    20    35 1   
    37    21    22 ar  
    38    21    36 1   
    39    23    37 1   
    40    28    38 1   
    41    29    38 1   
@<TRIPOS>SUBSTRUCTURE
     1 JFB         1 TEMP              0 ****  ****    0 ROOT
