@<TRIPOS>MOLECULE
JFC
   53    56     1     0     0
SMALL
No Charge or Current Charge


@<TRIPOS>ATOM
      1 C01         23.6620     6.4020    55.6620 c3         1 JFC      -0.122100
      2 C02         23.5030     5.0500    56.3890 c3         1 JFC       0.168600
      3 C04         23.1240     5.8300    58.6610 c          1 JFC       0.634300
      4 C06         22.0990     6.0250    59.7180 cc         1 JFC      -0.137300
      5 C07         20.7630     5.6440    59.6130 cd         1 JFC      -0.150200
      6 C08         20.0470     5.9590    60.8220 ca         1 JFC      -0.129800
      7 C09         18.7110     5.7560    61.1850 ca         1 JFC      -0.028000
      8 C10         18.2860     6.1630    62.4810 cp         1 JFC      -0.083000
      9 C11         16.8680     5.9680    62.9210 cp         1 JFC       0.018000
     10 C12         16.5300     5.7080    64.2710 ca         1 JFC      -0.161000
     11 C13         15.1870     5.5300    64.6410 ca         1 JFC       0.333900
     12 C15         14.4700     5.8450    62.4650 ca         1 JFC       0.333900
     13 C16         15.7860     6.0330    62.0110 ca         1 JFC      -0.161000
     14 C17         19.2520     6.7590    63.3500 ca         1 JFC      -0.066000
     15 C18         20.5920     6.9480    62.9490 ca         1 JFC      -0.131000
     16 C19         20.9600     6.5340    61.6600 ca         1 JFC      -0.024200
     17 C22         24.1910     6.1330    62.4610 c3         1 JFC       0.157800
     18 C24         25.9770     5.6850    64.1290 c6         1 JFC       0.133800
     19 C25         27.2360     6.2350    64.8800 c6         1 JFC       0.153600
     20 C27         27.6950     7.7480    63.0610 c6         1 JFC       0.153600
     21 C28         26.4180     7.2750    62.2890 c6         1 JFC       0.133800
     22 N14         14.1650     5.5960    63.7580 nb         1 JFC      -0.665000
     23 N20         22.1920     6.5940    61.0110 na         1 JFC      -0.057700
     24 N23         25.3710     6.6770    63.1840 n3         1 JFC      -0.727600
     25 O03         22.6350     5.2290    57.5260 os         1 JFC      -0.438100
     26 O05         24.2960     6.1620    58.7930 o          1 JFC      -0.503000
     27 O26         27.5370     7.5970    64.4920 os         1 JFC      -0.441000
     28 H013        24.2480     6.2690    54.7460 hc         1 JFC       0.049700
     29 H012        22.6820     6.8070    55.3850 hc         1 JFC       0.049700
     30 H011        24.1790     7.1360    56.2900 hc         1 JFC       0.049700
     31 H022        23.0550     4.3320    55.6900 h1         1 JFC       0.060700
     32 H021        24.4840     4.6550    56.6870 h1         1 JFC       0.060700
     33 H071        20.3260     5.1650    58.7400 ha         1 JFC       0.219000
     34 H091        18.0230     5.2810    60.4890 ha         1 JFC       0.120000
     35 H121        17.3000     5.6270    65.0320 ha         1 JFC       0.123000
     36 H131        14.9210     5.3250    65.6770 h4         1 JFC       0.017100
     37 H151        13.6320     5.8980    61.7710 h4         1 JFC       0.017100
     38 H161        15.9550     6.2420    60.9600 ha         1 JFC       0.123000
     39 H171        18.9560     7.0900    64.3420 ha         1 JFC       0.116000
     40 H181        21.3100     7.4020    63.6280 ha         1 JFC       0.124000
     41 H211        24.0200     7.6140    60.8770 h1         1 JFC       0.077200
     42 H212        23.0790     7.9900    62.3190 h1         1 JFC       0.077200
     43 H221        23.5030     5.6750    63.1850 h1         1 JFC       0.042700
     44 H222        24.5080     5.3340    61.7760 h1         1 JFC       0.042700
     45 H242        26.2730     4.7770    63.5830 h1         1 JFC       0.044200
     46 H252        28.1050     5.5980    64.6610 h1         1 JFC       0.046200
     47 H251        27.0630     6.2060    65.9650 h1         1 JFC       0.046200
     48 H271        28.5650     7.1610    62.7330 h1         1 JFC       0.046200
     49 H272        27.8980     8.8040    62.8340 h1         1 JFC       0.046200
     50 H281        26.0090     8.1400    61.7480 h1         1 JFC       0.044200
     51 H282        26.7280     6.5450    61.5270 h1         1 JFC       0.044200
     52 C21         23.3850     7.1740    61.6540 c3         1 JFC       0.071600
     53 H241        25.2340     5.3720    64.8760 h1         1 JFC       0.044200
@<TRIPOS>BOND
     1     1     2 1   
     2     1    28 1   
     3     1    29 1   
     4     1    30 1   
     5     2    25 1   
     6     2    31 1   
     7     2    32 1   
     8     3     4 1   
     9     3    25 1   
    10     3    26 2   
    11     4     5 2   
    12     4    23 1   
    13     5     6 1   
    14     5    33 1   
    15     6     7 ar  
    16     6    16 ar  
    17     7     8 ar  
    18     7    34 1   
    19     8     9 1   
    20     8    14 ar  
    21     9    10 ar  
    22     9    13 ar  
    23    10    11 ar  
    24    10    35 1   
    25    11    22 ar  
    26    11    36 1   
    27    12    13 ar  
    28    12    22 ar  
    29    12    37 1   
    30    13    38 1   
    31    14    15 ar  
    32    14    39 1   
    33    15    16 ar  
    34    15    40 1   
    35    16    23 1   
    36    17    24 1   
    37    17    43 1   
    38    17    44 1   
    39    17    52 1   
    40    18    19 1   
    41    18    24 1   
    42    18    45 1   
    43    18    53 1   
    44    19    27 1   
    45    19    46 1   
    46    19    47 1   
    47    20    21 1   
    48    20    27 1   
    49    20    48 1   
    50    20    49 1   
    51    21    24 1   
    52    21    50 1   
    53    21    51 1   
    54    23    52 1   
    55    41    52 1   
    56    42    52 1   
@<TRIPOS>SUBSTRUCTURE
     1 JFC         1 TEMP              0 ****  ****    0 ROOT
