@<TRIPOS>MOLECULE
JFC
   53    56     1     0     0
SMALL
bcc


@<TRIPOS>ATOM
      1 C01         23.8320     6.5810    55.7960 c3         1 JFC      -0.122100
      2 C02         23.5940     5.2940    56.5540 c3         1 JFC       0.145400
      3 C04         23.1270     5.9340    58.7950 c          1 JFC       0.683300
      4 C06         22.0320     6.0490    59.7680 cc         1 JFC      -0.137300
      5 C07         20.7400     5.6230    59.5920 cd         1 JFC      -0.100200
      6 C08         20.0430     5.9100    60.7900 ca         1 JFC      -0.129800
      7 C09         18.7220     5.7110    61.2040 ca         1 JFC      -0.046000
      8 C10         18.3420     6.1040    62.4740 cp         1 JFC      -0.083000
      9 C11         16.9570     5.9030    62.9370 cp         1 JFC       0.018000
     10 C12         16.6690     5.5520    64.2550 ca         1 JFC      -0.244300
     11 C13         15.3490     5.3720    64.6380 ca         1 JFC       0.399200
     12 C15         14.5870     5.8480    62.5600 ca         1 JFC       0.399200
     13 C16         15.8690     6.0510    62.0770 ca         1 JFC      -0.244300
     14 C17         19.2950     6.7030    63.3330 ca         1 JFC      -0.084000
     15 C18         20.5980     6.9180    62.9490 ca         1 JFC      -0.149000
     16 C19         20.9720     6.5140    61.6630 ca         1 JFC      -0.024200
     17 C22         24.1380     6.1310    62.4360 c3         1 JFC       0.157800
     18 C24         25.8690     5.8940    64.1040 c6         1 JFC       0.133800
     19 C25         26.9060     6.7100    64.8690 c6         1 JFC       0.130400
     20 C27         27.7200     7.0530    62.7010 c6         1 JFC       0.130400
     21 C28         26.3310     7.0870    62.0690 c6         1 JFC       0.133800
     22 N14         14.3150     5.5150    63.8170 nb         1 JFC      -0.665000
     23 N20         22.1730     6.6030    61.0280 na         1 JFC      -0.028400
     24 N23         25.3100     6.7120    63.0470 n3         1 JFC      -0.727600
     25 O03         22.6720     5.4730    57.6400 os         1 JFC      -0.414900
     26 O05         24.2860     6.2020    59.0090 o          1 JFC      -0.552000
     27 O26         27.6820     7.5360    64.0200 os         1 JFC      -0.394600
     28 H013        24.4620     6.3710    54.9310 hc         1 JFC       0.049700
     29 H012        22.8960     7.0050    55.4310 hc         1 JFC       0.049700
     30 H011        24.3400     7.3280    56.4040 hc         1 JFC       0.049700
     31 H022        23.1160     4.5560    55.9130 h1         1 JFC       0.060700
     32 H021        24.5290     4.8680    56.9180 h1         1 JFC       0.060700
     33 H071        20.3380     5.1520    58.7100 ha         1 JFC       0.169000
     34 H091        18.0150     5.2320    60.5360 ha         1 JFC       0.138000
     35 H121        17.4560     5.3970    64.9810 ha         1 JFC       0.141000
     36 H131        15.1210     5.0930    65.6610 h4         1 JFC       0.017100
     37 H151        13.7380     5.9690    61.8960 h4         1 JFC       0.017100
     38 H161        16.0080     6.3420    61.0440 ha         1 JFC       0.141000
     39 H171        18.9880     7.0240    64.3200 ha         1 JFC       0.134000
     40 H181        21.2970     7.3860    63.6300 ha         1 JFC       0.142000
     41 H211        23.9690     7.6290    60.8690 h1         1 JFC       0.077200
     42 H212        23.0390     7.9790    62.3050 h1         1 JFC       0.077200
     43 H221        23.4910     5.7410    63.2260 h1         1 JFC       0.042700
     44 H222        24.3870     5.2840    61.7760 h1         1 JFC       0.042700
     45 H242        26.3020     4.9520    63.7310 h1         1 JFC       0.044200
     46 H252        27.5490     6.0290    65.4420 h1         1 JFC       0.046200
     47 H251        26.4040     7.3700    65.5810 h1         1 JFC       0.046200
     48 H271        28.1340     6.0370    62.6630 h1         1 JFC       0.046200
     49 H272        28.4000     7.6910    62.1340 h1         1 JFC       0.046200
     50 H281        26.1200     8.0900    61.6880 h1         1 JFC       0.044200
     51 H282        26.3340     6.4110    61.2010 h1         1 JFC       0.044200
     52 C21         23.3570     7.1740    61.6410 c3         1 JFC       0.042300
     53 H241        25.0760     5.6110    64.7990 h1         1 JFC       0.044200
@<TRIPOS>BOND
     1     1     2 1   
     2     1    28 1   
     3     1    29 1   
     4     1    30 1   
     5     2    25 1   
     6     2    31 1   
     7     2    32 1   
     8     3     4 1   
     9     3    25 1   
    10     3    26 2   
    11     4     5 2   
    12     4    23 1   
    13     5     6 1   
    14     5    33 1   
    15     6     7 ar  
    16     6    16 ar  
    17     7     8 ar  
    18     7    34 1   
    19     8     9 1   
    20     8    14 ar  
    21     9    10 ar  
    22     9    13 ar  
    23    10    11 ar  
    24    10    35 1   
    25    11    22 ar  
    26    11    36 1   
    27    12    13 ar  
    28    12    22 ar  
    29    12    37 1   
    30    13    38 1   
    31    14    15 ar  
    32    14    39 1   
    33    15    16 ar  
    34    15    40 1   
    35    16    23 1   
    36    17    24 1   
    37    17    43 1   
    38    17    44 1   
    39    17    52 1   
    40    18    19 1   
    41    18    24 1   
    42    18    45 1   
    43    18    53 1   
    44    19    27 1   
    45    19    46 1   
    46    19    47 1   
    47    20    21 1   
    48    20    27 1   
    49    20    48 1   
    50    20    49 1   
    51    21    24 1   
    52    21    50 1   
    53    21    51 1   
    54    23    52 1   
    55    41    52 1   
    56    42    52 1   
@<TRIPOS>SUBSTRUCTURE
     1 JFC         1 TEMP              0 ****  ****    0 ROOT
