@<TRIPOS>MOLECULE
JFD
   14    14     1     0     0
SMALL
abcg2


@<TRIPOS>ATOM
      1 BR          -2.0470     0.1240     0.0310 br         1 JFD      -0.040700
      2 C5          -0.1780     0.0480     0.0230 cc         1 JFD      -0.375500
      3 C4           0.5280     1.2880     0.0460 c          1 JFD       0.623200
      4 O8           0.0260     2.3990     0.0720 o          1 JFD      -0.518000
      5 N3           1.9140     1.1560     0.0390 ns         1 JFD      -0.468500
      6 C2           2.6280    -0.0040     0.0090 c          1 JFD       0.633000
      7 O9           3.8400    -0.0470     0.0010 o          1 JFD      -0.551000
      8 N1           1.8570    -1.1390    -0.0110 ns         1 JFD      -0.547600
      9 C6           0.4890    -1.1590    -0.0040 cd         1 JFD       0.403600
     10 N7          -0.0820    -2.3590    -0.0340 nv         1 JFD      -0.983000
     11 HN3          2.4530     2.0130     0.0560 hn         1 JFD       0.347500
     12 HN1          2.3610    -2.0140    -0.0460 hn         1 JFD       0.453000
     13 HN7         -1.0810    -2.4650     0.0030 hn         1 JFD       0.511500
     14 HN7A         0.4650    -3.2030     0.0060 hn         1 JFD       0.511500
@<TRIPOS>BOND
     1     1     2 1   
     2     2     3 1   
     3     2     9 2   
     4     3     4 2   
     5     3     5 1   
     6     5     6 1   
     7     5    11 1   
     8     6     7 2   
     9     6     8 1   
    10     8     9 1   
    11     8    12 1   
    12     9    10 1   
    13    10    13 1   
    14    10    14 1   
@<TRIPOS>SUBSTRUCTURE
     1 JFD         1 TEMP              0 ****  ****    0 ROOT
