@<TRIPOS>MOLECULE
JFD
   14    14     1     0     0
SMALL
No Charge or Current Charge


@<TRIPOS>ATOM
      1 Br          -2.0850     0.1360    -0.0040 br         1 JFD      -0.040700
      2 C5          -0.1900     0.0200    -0.0030 cc         1 JFD      -0.375500
      3 C4           0.5530     1.2900     0.0600 c          1 JFD       0.623200
      4 O8           0.0360     2.3940     0.1110 o          1 JFD      -0.518000
      5 N3           1.9050     1.1400     0.0580 ns         1 JFD      -0.468500
      6 C2           2.6110    -0.0150     0.0010 c          1 JFD       0.633000
      7 O9           3.8260    -0.0490    -0.0040 o          1 JFD      -0.551000
      8 N1           1.8480    -1.1360    -0.0520 ns         1 JFD      -0.547600
      9 C6           0.5010    -1.1510    -0.0520 cd         1 JFD       0.403600
     10 N7          -0.0550    -2.3700    -0.1130 nv         1 JFD      -0.983000
     11 HN3          2.4460     1.9880     0.0990 hn         1 JFD       0.347500
     12 HN1          2.3720    -1.9950    -0.1190 hn         1 JFD       0.453000
     13 HN7         -1.0620    -2.4280     0.0160 hn         1 JFD       0.511500
     14 HN7A         0.4680    -3.1850     0.1940 hn         1 JFD       0.511500
@<TRIPOS>BOND
     1     1     2 1   
     2     2     3 1   
     3     2     9 2   
     4     3     4 2   
     5     3     5 1   
     6     5     6 1   
     7     5    11 1   
     8     6     7 2   
     9     6     8 1   
    10     8     9 1   
    11     8    12 1   
    12     9    10 1   
    13    10    13 1   
    14    10    14 1   
@<TRIPOS>SUBSTRUCTURE
     1 JFD         1 TEMP              0 ****  ****    0 ROOT
