@<TRIPOS>MOLECULE
JFE
   42    45     1     0     0
SMALL
No Charge or Current Charge


@<TRIPOS>ATOM
      1 C10          0.2710     3.0080     0.2330 ca         1 JFE      -0.090800
      2 C15         -2.3370    -0.1370    -1.4270 ca         1 JFE      -0.078300
      3 C17         -2.6980    -2.5520    -1.4410 ca         1 JFE      -0.072000
      4 C20         -2.9270    -0.0740    -0.1460 ca         1 JFE      -0.124000
      5 C22         -4.4650    -2.2310     2.4790 c3         1 JFE       0.149900
      6 C24         -0.7660     3.9710     0.0110 cc         1 JFE      -0.241200
      7 C02          4.5660    -1.7500     0.8720 cc         1 JFE       0.204000
      8 N03          3.7870    -2.2460    -0.1610 na         1 JFE      -0.038200
      9 N04          2.7440    -1.3980    -0.5140 nc         1 JFE      -0.529800
     10 C05          2.8980    -0.3740     0.3170 cd         1 JFE       0.342500
     11 C06          4.0060    -0.5590     1.1810 cd         1 JFE      -0.278000
     12 C07          1.9820     0.7920     0.2950 ca         1 JFE      -0.109500
     13 C08          2.2680     1.9550     1.0650 ca         1 JFE      -0.122000
     14 C09          1.4090     3.0730     1.0410 ca         1 JFE      -0.072000
     15 C11         -0.0210     1.9080    -0.5220 ca         1 JFE      -0.050200
     16 C12          0.8160     0.7800    -0.5170 ca         1 JFE      -0.090000
     17 N13         -1.2030     2.1120    -1.2240 na         1 JFE      -0.091700
     18 C14         -1.8220     1.1220    -2.1250 c3         1 JFE       0.126900
     19 C16         -2.2310    -1.3860    -2.0690 ca         1 JFE      -0.137000
     20 C18         -3.2780    -2.4820    -0.1630 ca         1 JFE      -0.192000
     21 C19         -3.3950    -1.2360     0.4890 ca         1 JFE       0.142100
     22 O21         -3.9590    -1.1040     1.7420 os         1 JFE      -0.340100
     23 C23         -1.6650     3.4050    -0.8860 cd         1 JFE      -0.158100
     24 H1          -2.6090    -3.5120    -1.9450 ha         1 JFE       0.112000
     25 H2          -3.0250     0.8800     0.3650 ha         1 JFE       0.135000
     26 H3          -5.2730    -2.7270     1.9260 h1         1 JFE       0.040033
     27 H4          -3.6690    -2.9620     2.6700 h1         1 JFE       0.040033
     28 H5          -4.8660    -1.9040     3.4460 h1         1 JFE       0.040033
     29 H6          -0.8500     4.9610     0.4550 ha         1 JFE       0.204000
     30 H7           5.8770    -3.3470     1.1180 hn         1 JFE       0.448000
     31 H8           6.1200    -2.0130     2.2180 hn         1 JFE       0.448000
     32 H9           3.9340    -3.1330    -0.6340 hn         1 JFE       0.366000
     33 H10          4.3470     0.1180     1.9530 ha         1 JFE       0.145000
     34 H11          3.1590     2.0010     1.6850 ha         1 JFE       0.109000
     35 H12          1.6270     3.9600     1.6310 ha         1 JFE       0.112000
     36 H13          0.5660    -0.0870    -1.1230 ha         1 JFE       0.133000
     37 H14         -1.0810     0.8440    -2.8850 h1         1 JFE       0.062700
     38 H15         -2.6590     1.6030    -2.6460 h1         1 JFE       0.062700
     39 H16         -1.7840    -1.4550    -3.0590 ha         1 JFE       0.115000
     40 H17         -3.6300    -3.3990     0.3000 ha         1 JFE       0.116000
     41 H18         -2.5820     3.8160    -1.3000 h4         1 JFE       0.208000
     42 N01          5.6440    -2.3950     1.4000 nv         1 JFE      -1.050000
@<TRIPOS>BOND
     1     1     6 1   
     2     1    14 ar  
     3     1    15 ar  
     4     2     4 ar  
     5     2    18 1   
     6     2    19 ar  
     7     3    19 ar  
     8     3    20 ar  
     9     3    24 1   
    10     4    21 ar  
    11     4    25 1   
    12     5    22 1   
    13     5    26 1   
    14     5    27 1   
    15     5    28 1   
    16     6    23 2   
    17     6    29 1   
    18     7     8 1   
    19     7    11 2   
    20     7    42 1   
    21     8     9 1   
    22     8    32 1   
    23     9    10 2   
    24    10    11 1   
    25    10    12 1   
    26    11    33 1   
    27    12    13 ar  
    28    12    16 ar  
    29    13    14 ar  
    30    13    34 1   
    31    14    35 1   
    32    15    16 ar  
    33    15    17 1   
    34    16    36 1   
    35    17    18 1   
    36    17    23 1   
    37    18    37 1   
    38    18    38 1   
    39    19    39 1   
    40    20    21 ar  
    41    20    40 1   
    42    21    22 1   
    43    23    41 1   
    44    30    42 1   
    45    31    42 1   
@<TRIPOS>SUBSTRUCTURE
     1 JFE         1 TEMP              0 ****  ****    0 ROOT
