@<TRIPOS>MOLECULE
JFE
   42    45     1     0     0
SMALL
bcc


@<TRIPOS>ATOM
      1 C10          0.2340     2.9880     0.2960 ca         1 JFE      -0.090800
      2 C15         -2.2800    -0.1570    -1.3660 ca         1 JFE      -0.078300
      3 C17         -2.5930    -2.5370    -1.3320 ca         1 JFE      -0.090000
      4 C20         -2.9280    -0.0640    -0.1450 ca         1 JFE      -0.142000
      5 C22         -4.5770    -2.1270     2.3440 c3         1 JFE       0.126700
      6 C24         -0.8460     3.8900     0.0500 cc         1 JFE      -0.191200
      7 C02          4.6010    -1.7100     0.7540 cc         1 JFE       0.116300
      8 N03          3.7430    -2.2200    -0.1480 na         1 JFE      -0.038600
      9 N04          2.7140    -1.4030    -0.4190 nc         1 JFE      -0.529800
     10 C05          2.9210    -0.3350     0.3290 cd         1 JFE       0.407800
     11 C06          4.1000    -0.4680     1.0970 cd         1 JFE      -0.361300
     12 C07          1.9860     0.7950     0.3030 ca         1 JFE      -0.109500
     13 C08          2.2370     1.9400     1.0870 ca         1 JFE      -0.140000
     14 C09          1.3830     3.0240     1.0920 ca         1 JFE      -0.090000
     15 C11         -0.0080     1.8380    -0.4860 ca         1 JFE      -0.050200
     16 C12          0.8490     0.7430    -0.4930 ca         1 JFE      -0.108000
     17 N13         -1.1740     2.0390    -1.1750 na         1 JFE      -0.062400
     18 C14         -1.7880     1.0870    -2.0670 c3         1 JFE       0.097600
     19 C16         -2.1080    -1.4030    -1.9620 ca         1 JFE      -0.155000
     20 C18         -3.2450    -2.4540    -0.1080 ca         1 JFE      -0.210000
     21 C19         -3.4130    -1.2070     0.4910 ca         1 JFE       0.142100
     22 O21         -4.0280    -1.0100     1.6730 os         1 JFE      -0.316900
     23 C23         -1.6710     3.2710    -0.8430 cd         1 JFE      -0.108100
     24 H1          -2.4580    -3.5080    -1.7900 ha         1 JFE       0.130000
     25 H2          -3.0650     0.9000     0.3340 ha         1 JFE       0.153000
     26 H3          -5.3390    -2.6290     1.7420 h1         1 JFE       0.040033
     27 H4          -3.8100    -2.8550     2.6200 h1         1 JFE       0.040033
     28 H5          -5.0400    -1.7470     3.2510 h1         1 JFE       0.040033
     29 H6          -0.9920     4.8700     0.4740 ha         1 JFE       0.154000
     30 H7           5.7010    -3.3610     1.1370 hn         1 JFE       0.392800
     31 H8           6.1460    -2.0100     1.9880 hn         1 JFE       0.392800
     32 H9           3.8070    -3.1110    -0.6130 hn         1 JFE       0.315700
     33 H10          4.5330     0.2230     1.8010 ha         1 JFE       0.163000
     34 H11          3.1250     1.9740     1.7060 ha         1 JFE       0.127000
     35 H12          1.6050     3.8880     1.7050 ha         1 JFE       0.130000
     36 H13          0.6400    -0.1330    -1.0950 ha         1 JFE       0.151000
     37 H14         -1.0820     0.8160    -2.8560 h1         1 JFE       0.062700
     38 H15         -2.6210     1.5910    -2.5590 h1         1 JFE       0.062700
     39 H16         -1.5910    -1.4850    -2.9100 ha         1 JFE       0.133000
     40 H17         -3.6050    -3.3610     0.3590 ha         1 JFE       0.134000
     41 H18         -2.5940     3.6160    -1.2830 h4         1 JFE       0.158000
     42 N01          5.7560    -2.3530     1.1240 nv         1 JFE      -0.801200
@<TRIPOS>BOND
     1     1     6 1   
     2     1    14 ar  
     3     1    15 ar  
     4     2     4 ar  
     5     2    18 1   
     6     2    19 ar  
     7     3    19 ar  
     8     3    20 ar  
     9     3    24 1   
    10     4    21 ar  
    11     4    25 1   
    12     5    22 1   
    13     5    26 1   
    14     5    27 1   
    15     5    28 1   
    16     6    23 2   
    17     6    29 1   
    18     7     8 1   
    19     7    11 2   
    20     7    42 1   
    21     8     9 1   
    22     8    32 1   
    23     9    10 2   
    24    10    11 1   
    25    10    12 1   
    26    11    33 1   
    27    12    13 ar  
    28    12    16 ar  
    29    13    14 ar  
    30    13    34 1   
    31    14    35 1   
    32    15    16 ar  
    33    15    17 1   
    34    16    36 1   
    35    17    18 1   
    36    17    23 1   
    37    18    37 1   
    38    18    38 1   
    39    19    39 1   
    40    20    21 ar  
    41    20    40 1   
    42    21    22 1   
    43    23    41 1   
    44    30    42 1   
    45    31    42 1   
@<TRIPOS>SUBSTRUCTURE
     1 JFE         1 TEMP              0 ****  ****    0 ROOT
