@<TRIPOS>MOLECULE
JFG
   44    47     1     0     0
SMALL
No Charge or Current Charge


@<TRIPOS>ATOM
      1 N3         -53.7250    76.8810   -14.4970 nb         1 JFG      -0.700000
      2 C4         -53.8130    75.5260   -14.2910 ca         1 JFG       0.295500
      3 C5         -53.1550    74.6060   -15.1680 ca         1 JFG      -0.055300
      4 C6         -52.4110    75.1190   -16.2490 ca         1 JFG      -0.089000
      5 C7         -53.2130    73.0880   -14.9960 c3         1 JFG      -0.043800
      6 C13        -56.3890    77.5050   -10.7640 cc         1 JFG      -0.130000
      7 C15        -56.4240    75.0190   -10.5660 cd         1 JFG      -0.119000
      8 C20        -58.3430    76.2780    -7.9260 cc         1 JFG      -0.376600
      9 C21        -59.1410    74.1770    -6.6710 ca         1 JFG      -0.095900
     10 C22        -59.1400    72.7630    -6.5870 ca         1 JFG      -0.087500
     11 C24        -60.5460    72.8360    -4.6020 ca         1 JFG      -0.104000
     12 C26        -59.8620    74.9030    -5.6930 ca         1 JFG      -0.087500
     13 C1         -52.3380    76.5060   -16.4340 ca         1 JFG      -0.138000
     14 C2         -53.0090    77.3500   -15.5390 ca         1 JFG       0.359300
     15 C9         -54.6540    75.0770   -13.0750 c          1 JFG       0.512600
     16 O10        -54.8350    73.9080   -12.7510 o          1 JFG      -0.585100
     17 N11        -55.2010    76.1400   -12.3640 ns         1 JFG      -0.382100
     18 C12        -57.1820    77.6870    -9.6510 cd         1 JFG      -0.072000
     19 C14        -56.0070    76.1830   -11.2260 cc         1 JFG       0.027600
     20 C16        -57.5750    76.4790    -9.0240 cd         1 JFG      -0.116000
     21 N17        -57.2250    75.2240    -9.4450 na         1 JFG       0.345400
     22 N18        -57.7210    74.1920    -8.6810 nd         1 JFG      -0.577100
     23 C19        -58.4050    74.8640    -7.7530 cc         1 JFG       0.424200
     24 C23        -59.8370    72.1000    -5.5620 ca         1 JFG      -0.118000
     25 C25        -60.5580    74.2370    -4.6690 ca         1 JFG      -0.118000
     26 H1         -51.8940    74.4540   -16.9380 ha         1 JFG       0.124000
     27 H2         -54.2440    72.7200   -15.0570 hc         1 JFG       0.056700
     28 H3         -52.6420    72.5680   -15.7740 hc         1 JFG       0.056700
     29 H4         -52.7930    72.7810   -14.0310 hc         1 JFG       0.056700
     30 H5         -53.9440    79.3060   -15.5060 hc         1 JFG       0.054033
     31 H6         -52.2530    79.2950   -14.9750 hc         1 JFG       0.054033
     32 H7         -52.6450    79.1500   -16.6960 hc         1 JFG       0.054033
     33 H8         -56.0360    78.3720   -11.3140 ha         1 JFG       0.122000
     34 H9         -56.2010    73.9950   -10.8210 h4         1 JFG       0.191000
     35 H10        -58.8140    77.0310    -7.3040 ha         1 JFG       0.215000
     36 H11        -58.5990    72.1660    -7.3180 ha         1 JFG       0.121000
     37 H12        -61.0850    72.3220    -3.8080 ha         1 JFG       0.111000
     38 H13        -59.8940    75.9880    -5.7130 ha         1 JFG       0.121000
     39 H14        -51.7680    76.9230   -17.2600 ha         1 JFG       0.127000
     40 H15        -54.9390    77.0280   -12.7860 hn         1 JFG       0.356500
     41 H16        -57.4780    78.6670    -9.2910 ha         1 JFG       0.133000
     42 H17        -59.8260    71.0130    -5.5130 ha         1 JFG       0.111500
     43 H18        -61.1070    74.8100    -3.9250 ha         1 JFG       0.111500
     44 C8         -52.9610    78.8580   -15.6880 c3         1 JFG      -0.145400
@<TRIPOS>BOND
     1     1     2 ar  
     2     1    14 ar  
     3     2     3 ar  
     4     2    15 1   
     5     3     4 ar  
     6     3     5 1   
     7     4    13 ar  
     8     4    26 1   
     9     5    27 1   
    10     5    28 1   
    11     5    29 1   
    12     6    18 2   
    13     6    19 1   
    14     6    33 1   
    15     7    19 2   
    16     7    21 1   
    17     7    34 1   
    18     8    20 2   
    19     8    23 1   
    20     8    35 1   
    21     9    10 ar  
    22     9    12 ar  
    23     9    23 1   
    24    10    24 ar  
    25    10    36 1   
    26    11    24 ar  
    27    11    25 ar  
    28    11    37 1   
    29    12    25 ar  
    30    12    38 1   
    31    13    14 ar  
    32    13    39 1   
    33    14    44 1   
    34    15    16 2   
    35    15    17 1   
    36    17    19 1   
    37    17    40 1   
    38    18    20 1   
    39    18    41 1   
    40    20    21 1   
    41    21    22 1   
    42    22    23 2   
    43    24    42 1   
    44    25    43 1   
    45    30    44 1   
    46    31    44 1   
    47    32    44 1   
@<TRIPOS>SUBSTRUCTURE
     1 JFG         1 TEMP              0 ****  ****    0 ROOT
