@<TRIPOS>MOLECULE
JFG
   44    47     1     0     0
SMALL
abcg2


@<TRIPOS>ATOM
      1 N3         -53.7560    76.8120   -14.4480 nb         1 JFG      -0.700000
      2 C4         -53.8950    75.5040   -14.2300 ca         1 JFG       0.295500
      3 C5         -53.2540    74.5310   -15.0000 ca         1 JFG      -0.055300
      4 C6         -52.4380    75.0210   -16.0230 ca         1 JFG      -0.089000
      5 C7         -53.3680    73.0470   -14.8150 c3         1 JFG      -0.043800
      6 C13        -56.4950    77.6110   -10.8910 cc         1 JFG      -0.130000
      7 C15        -56.5230    75.2160   -10.6180 cd         1 JFG      -0.119000
      8 C20        -58.4500    76.4080    -7.9220 cc         1 JFG      -0.376600
      9 C21        -59.0840    74.2080    -6.7390 ca         1 JFG      -0.095900
     10 C22        -58.9940    72.8140    -6.7620 ca         1 JFG      -0.087500
     11 C24        -60.2900    72.6650    -4.7390 ca         1 JFG      -0.104000
     12 C26        -59.7880    74.8140    -5.6990 ca         1 JFG      -0.087500
     13 C1         -52.2950    76.3730   -16.2410 ca         1 JFG      -0.138000
     14 C2         -52.9850    77.2660   -15.4190 ca         1 JFG       0.359300
     15 C9         -54.7920    75.1600   -13.0730 c          1 JFG       0.512600
     16 O10        -55.0340    74.0140   -12.7360 o          1 JFG      -0.585100
     17 N11        -55.2870    76.2520   -12.4470 ns         1 JFG      -0.382100
     18 C12        -57.2710    77.7810    -9.7900 cd         1 JFG      -0.072000
     19 C14        -56.1010    76.3080   -11.3230 cc         1 JFG       0.027600
     20 C16        -57.6940    76.6510    -9.0590 cd         1 JFG      -0.116000
     21 N17        -57.2990    75.4160    -9.5150 na         1 JFG       0.345400
     22 N18        -57.7480    74.4260    -8.7550 nd         1 JFG      -0.577100
     23 C19        -58.4460    75.0160    -7.7820 cc         1 JFG       0.424200
     24 C23        -59.5910    72.0520    -5.7710 ca         1 JFG      -0.118000
     25 C25        -60.3860    74.0500    -4.7080 ca         1 JFG      -0.118000
     26 H1         -51.9070    74.3180   -16.6540 ha         1 JFG       0.124000
     27 H2         -54.3920    72.6980   -14.9340 hc         1 JFG       0.056700
     28 H3         -52.7530    72.5380   -15.5560 hc         1 JFG       0.056700
     29 H4         -53.0330    72.7310   -13.8280 hc         1 JFG       0.056700
     30 H5         -53.5140    79.2770   -14.9090 hc         1 JFG       0.054033
     31 H6         -51.8420    79.0790   -15.4410 hc         1 JFG       0.054033
     32 H7         -53.1390    79.0360   -16.6210 hc         1 JFG       0.054033
     33 H8         -56.1630    78.4720   -11.4560 ha         1 JFG       0.122000
     34 H9         -56.2920    74.1920   -10.8500 h4         1 JFG       0.191000
     35 H10        -58.9220    77.1480    -7.2980 ha         1 JFG       0.215000
     36 H11        -58.4520    72.3240    -7.5600 ha         1 JFG       0.121000
     37 H12        -60.7560    72.0690    -3.9650 ha         1 JFG       0.111000
     38 H13        -59.8740    75.8930    -5.6540 ha         1 JFG       0.121000
     39 H14        -51.6580    76.7410   -17.0350 ha         1 JFG       0.127000
     40 H15        -54.9990    77.1340   -12.8570 hn         1 JFG       0.356500
     41 H16        -57.5670    78.7680    -9.4620 ha         1 JFG       0.133000
     42 H17        -59.5100    70.9730    -5.8050 ha         1 JFG       0.111500
     43 H18        -60.9270    74.5400    -3.9080 ha         1 JFG       0.111500
     44 C8         -52.8680    78.7460   -15.6050 c3         1 JFG      -0.145400
@<TRIPOS>BOND
     1     1     2 ar  
     2     1    14 ar  
     3     2     3 ar  
     4     2    15 1   
     5     3     4 ar  
     6     3     5 1   
     7     4    13 ar  
     8     4    26 1   
     9     5    27 1   
    10     5    28 1   
    11     5    29 1   
    12     6    18 2   
    13     6    19 1   
    14     6    33 1   
    15     7    19 2   
    16     7    21 1   
    17     7    34 1   
    18     8    20 2   
    19     8    23 1   
    20     8    35 1   
    21     9    10 ar  
    22     9    12 ar  
    23     9    23 1   
    24    10    24 ar  
    25    10    36 1   
    26    11    24 ar  
    27    11    25 ar  
    28    11    37 1   
    29    12    25 ar  
    30    12    38 1   
    31    13    14 ar  
    32    13    39 1   
    33    14    44 1   
    34    15    16 2   
    35    15    17 1   
    36    17    19 1   
    37    17    40 1   
    38    18    20 1   
    39    18    41 1   
    40    20    21 1   
    41    21    22 1   
    42    22    23 2   
    43    24    42 1   
    44    25    43 1   
    45    30    44 1   
    46    31    44 1   
    47    32    44 1   
@<TRIPOS>SUBSTRUCTURE
     1 JFG         1 TEMP              0 ****  ****    0 ROOT
