@<TRIPOS>MOLECULE
JFH
   53    57     1     0     0
SMALL
abcg2


@<TRIPOS>ATOM
      1 C10         -1.9640    -2.0780    -0.2520 ca         1 JFH      -0.048200
      2 C13          1.1250    -1.5620    -0.9010 ca         1 JFH      -0.117300
      3 C15          2.8000    -1.4480     0.8310 ca         1 JFH      -0.098500
      4 C20          6.8720     2.7660     0.1080 c5         1 JFH      -0.079900
      5 C21          6.8570     1.6330    -0.9410 c5         1 JFH      -0.079900
      6 C22          5.8550     0.6190    -0.3890 c5         1 JFH       0.157800
      7 C24          1.4010    -0.2360    -1.2160 ca         1 JFH      -0.093500
      8 C26         -2.1060    -4.2030     0.5660 cc         1 JFH      -0.240200
      9 C28         -4.7660     1.9150     0.6930 cc         1 JFH      -0.277000
     10 C02         -4.7250     3.1760     0.1290 cd         1 JFH       0.202000
     11 C05         -3.7520     1.1920     0.0260 cc         1 JFH       0.341500
     12 C06         -3.3670    -0.2090     0.2240 ca         1 JFH      -0.108500
     13 C07         -4.1130    -1.0290     1.0970 ca         1 JFH      -0.123000
     14 C08         -3.7970    -2.3560     1.2980 ca         1 JFH      -0.071000
     15 C09         -2.7070    -2.9080     0.6180 ca         1 JFH      -0.092800
     16 C14          1.8370    -2.1610     0.1340 ca         1 JFH      -0.093500
     17 C16          3.0760    -0.1200     0.5200 ca         1 JFH      -0.075300
     18 C19          5.8770     2.3040     1.1740 c5         1 JFH       0.157800
     19 C23          2.3650     0.4760    -0.5160 ca         1 JFH      -0.098500
     20 C25         -1.0610    -4.1100    -0.3060 cd         1 JFH      -0.161100
     21 C27         -2.2770    -0.7390    -0.4540 ca         1 JFH      -0.091000
     22 N01         -5.4290     4.3200     0.4170 nv         1 JFH      -1.046000
     23 N03         -3.7410     3.1400    -0.7880 na         1 JFH      -0.036200
     24 N04         -3.1400     1.9440    -0.8720 nd         1 JFH      -0.530800
     25 N11         -0.9730    -2.8380    -0.8090 na         1 JFH      -0.088700
     26 N18          4.9810     1.4220     0.4480 n3         1 JFH      -0.718600
     27 H1           3.3530    -1.9370     1.6250 ha         1 JFH       0.120000
     28 H2           3.5910     1.3520     1.9710 h1         1 JFH       0.038700
     29 H3           4.6670    -0.0380     1.9490 h1         1 JFH       0.038700
     30 H5           6.5530     3.7090    -0.3360 hc         1 JFH       0.046200
     31 H6           6.5310     2.0100    -1.9110 hc         1 JFH       0.046200
     32 H7           7.8390     1.1830    -1.0850 hc         1 JFH       0.046200
     33 H8           5.2930     0.1030    -1.1700 h1         1 JFH       0.036700
     34 H9           6.3780    -0.1520     0.2030 h1         1 JFH       0.036700
     35 H10          0.8570     0.2480    -2.0190 ha         1 JFH       0.114000
     36 H11         -2.4130    -5.0880     1.0980 ha         1 JFH       0.203000
     37 H12         -5.4350     1.5810     1.4690 ha         1 JFH       0.145000
     38 H13         -4.9630    -0.6110     1.6200 ha         1 JFH       0.109000
     39 H14         -4.3910    -2.9620     1.9710 ha         1 JFH       0.112000
     40 H17          1.6470    -3.1950     0.3970 ha         1 JFH       0.114000
     41 H18          6.4070     1.7680     1.9800 h1         1 JFH       0.036700
     42 H19          5.3260     3.1260     1.6370 h1         1 JFH       0.036700
     43 H20          2.5720     1.5060    -0.7830 ha         1 JFH       0.120000
     44 H21         -0.3590    -4.8650    -0.6250 h4         1 JFH       0.207000
     45 H22         -1.6950    -0.1150    -1.1200 ha         1 JFH       0.130000
     46 H23         -6.2870     4.1410     0.9150 hn         1 JFH       0.446500
     47 H24         -5.6040     4.9210    -0.3750 hn         1 JFH       0.446500
     48 H25         -3.4430     3.8920    -1.3880 hn         1 JFH       0.367000
     49 C12          0.0820    -2.3420    -1.6630 c3         1 JFH       0.127900
     50 C17          4.1050     0.6560     1.3000 c3         1 JFH       0.215100
     51 H4           7.8620     2.9300     0.5340 hc         1 JFH       0.046200
     52 H15         -0.3550    -1.7210    -2.4480 h1         1 JFH       0.062700
     53 H16          0.5310    -3.2030    -2.1580 h1         1 JFH       0.062700
@<TRIPOS>BOND
     1     1    15 ar  
     2     1    21 ar  
     3     1    25 1   
     4     2     7 ar  
     5     2    16 ar  
     6     2    49 1   
     7     3    16 ar  
     8     3    17 ar  
     9     3    27 1   
    10     4     5 1   
    11     4    18 1   
    12     4    30 1   
    13     4    51 1   
    14     5     6 1   
    15     5    31 1   
    16     5    32 1   
    17     6    26 1   
    18     6    33 1   
    19     6    34 1   
    20     7    19 ar  
    21     7    35 1   
    22     8    15 1   
    23     8    20 2   
    24     8    36 1   
    25     9    10 2   
    26     9    11 1   
    27     9    37 1   
    28    10    22 1   
    29    10    23 1   
    30    11    12 1   
    31    11    24 2   
    32    12    13 ar  
    33    12    21 ar  
    34    13    14 ar  
    35    13    38 1   
    36    14    15 ar  
    37    14    39 1   
    38    16    40 1   
    39    17    19 ar  
    40    17    50 1   
    41    18    26 1   
    42    18    41 1   
    43    18    42 1   
    44    19    43 1   
    45    20    25 1   
    46    20    44 1   
    47    21    45 1   
    48    22    46 1   
    49    22    47 1   
    50    23    24 1   
    51    23    48 1   
    52    25    49 1   
    53    26    50 1   
    54    28    50 1   
    55    29    50 1   
    56    49    52 1   
    57    49    53 1   
@<TRIPOS>SUBSTRUCTURE
     1 JFH         1 TEMP              0 ****  ****    0 ROOT
