@<TRIPOS>MOLECULE
JFH
   53    57     1     0     0
SMALL
No Charge or Current Charge


@<TRIPOS>ATOM
      1 C10         -1.9210    -2.1920    -0.3610 ca         1 JFH      -0.048200
      2 C13          1.0580    -1.2570    -1.1740 ca         1 JFH      -0.117300
      3 C15          2.4110    -0.6000     0.7520 ca         1 JFH      -0.098500
      4 C20          7.3570     2.2010     0.0430 c5         1 JFH      -0.079900
      5 C21          7.2320     0.6730    -0.2610 c5         1 JFH      -0.079900
      6 C22          5.8410     0.2900     0.3130 c5         1 JFH       0.157800
      7 C24          1.4560    -0.0800    -1.8360 ca         1 JFH      -0.093500
      8 C26         -2.0640    -4.3560     0.2640 cc         1 JFH      -0.240200
      9 C28         -4.8280     1.6660     0.9260 cc         1 JFH      -0.277000
     10 C02         -4.8290     2.9770     0.6120 cd         1 JFH       0.202000
     11 C05         -3.7430     1.0780     0.2410 cc         1 JFH       0.341500
     12 C06         -3.3730    -0.3510     0.3000 ca         1 JFH      -0.108500
     13 C07         -4.1210    -1.2770     1.0830 ca         1 JFH      -0.123000
     14 C08         -3.7640    -2.6400     1.1370 ca         1 JFH      -0.071000
     15 C09         -2.6540    -3.0580     0.3980 ca         1 JFH      -0.092800
     16 C14          1.5460    -1.5130     0.1240 ca         1 JFH      -0.093500
     17 C16          2.8030     0.5800     0.0900 ca         1 JFH      -0.075300
     18 C19          6.0420     2.5400     0.7920 c5         1 JFH       0.157800
     19 C23          2.3220     0.8330    -1.2080 ca         1 JFH      -0.098500
     20 C25         -0.9730    -4.2230    -0.5870 cd         1 JFH      -0.161100
     21 C27         -2.2530    -0.8290    -0.4320 ca         1 JFH      -0.091000
     22 N01         -5.6610     3.9840     1.0040 nv         1 JFH      -1.046000
     23 N03         -3.7510     3.1570    -0.2500 na         1 JFH      -0.036200
     24 N04         -3.0680     1.9600    -0.4840 nd         1 JFH      -0.530800
     25 N11         -0.8780    -2.8690    -0.9830 na         1 JFH      -0.088700
     26 N18          5.1070     1.5670     0.1960 n3         1 JFH      -0.718600
     27 H1           2.7790    -0.8120     1.7530 ha         1 JFH       0.120000
     28 H2           3.3070     2.5780     0.6690 h1         1 JFH       0.038700
     29 H3           3.7850     1.3520     1.8440 h1         1 JFH       0.038700
     30 H5           7.4370     2.7760    -0.8870 hc         1 JFH       0.046200
     31 H6           7.2750     0.4870    -1.3400 hc         1 JFH       0.046200
     32 H7           8.0340     0.0870     0.2000 hc         1 JFH       0.046200
     33 H8           5.3720    -0.5240    -0.2560 h1         1 JFH       0.036700
     34 H9           5.9210    -0.0280     1.3630 h1         1 JFH       0.036700
     35 H10          1.0950     0.1320    -2.8400 ha         1 JFH       0.114000
     36 H11         -2.3930    -5.2810     0.7340 ha         1 JFH       0.203000
     37 H12         -5.5270     1.1620     1.5790 ha         1 JFH       0.145000
     38 H13         -4.9830    -0.9520     1.6570 ha         1 JFH       0.109000
     39 H14         -4.3350    -3.3460     1.7360 ha         1 JFH       0.112000
     40 H17          1.2580    -2.4200     0.6510 ha         1 JFH       0.114000
     41 H18          6.1500     2.3790     1.8750 h1         1 JFH       0.036700
     42 H19          5.7300     3.5810     0.6300 h1         1 JFH       0.036700
     43 H20          2.6240     1.7370    -1.7310 ha         1 JFH       0.120000
     44 H21         -0.2690    -4.9750    -0.9340 h4         1 JFH       0.207000
     45 H22         -1.6530    -0.1560    -1.0400 ha         1 JFH       0.130000
     46 H23         -6.4710     3.7850     1.5910 hn         1 JFH       0.446500
     47 H24         -5.5730     4.9260     0.6210 hn         1 JFH       0.446500
     48 H25         -3.4660     4.0340    -0.6760 hn         1 JFH       0.367000
     49 C12          0.1160    -2.2390    -1.8720 c3         1 JFH       0.127900
     50 C17          3.7420     1.5740     0.7680 c3         1 JFH       0.215100
     51 H4           8.2410     2.4380     0.6460 hc         1 JFH       0.046200
     52 H15         -0.4260    -1.7230    -2.6750 h1         1 JFH       0.062700
     53 H16          0.7140    -3.0310    -2.3390 h1         1 JFH       0.062700
@<TRIPOS>BOND
     1     1    15 ar  
     2     1    21 ar  
     3     1    25 1   
     4     2     7 ar  
     5     2    16 ar  
     6     2    49 1   
     7     3    16 ar  
     8     3    17 ar  
     9     3    27 1   
    10     4     5 1   
    11     4    18 1   
    12     4    30 1   
    13     4    51 1   
    14     5     6 1   
    15     5    31 1   
    16     5    32 1   
    17     6    26 1   
    18     6    33 1   
    19     6    34 1   
    20     7    19 ar  
    21     7    35 1   
    22     8    15 1   
    23     8    20 2   
    24     8    36 1   
    25     9    10 2   
    26     9    11 1   
    27     9    37 1   
    28    10    22 1   
    29    10    23 1   
    30    11    12 1   
    31    11    24 2   
    32    12    13 ar  
    33    12    21 ar  
    34    13    14 ar  
    35    13    38 1   
    36    14    15 ar  
    37    14    39 1   
    38    16    40 1   
    39    17    19 ar  
    40    17    50 1   
    41    18    26 1   
    42    18    41 1   
    43    18    42 1   
    44    19    43 1   
    45    20    25 1   
    46    20    44 1   
    47    21    45 1   
    48    22    46 1   
    49    22    47 1   
    50    23    24 1   
    51    23    48 1   
    52    25    49 1   
    53    26    50 1   
    54    28    50 1   
    55    29    50 1   
    56    49    52 1   
    57    49    53 1   
@<TRIPOS>SUBSTRUCTURE
     1 JFH         1 TEMP              0 ****  ****    0 ROOT
