@<TRIPOS>MOLECULE
JFI
   47    49     1     0     0
SMALL
abcg2


@<TRIPOS>ATOM
      1 C02         20.0780     5.0870    59.7140 c          1 JFI       0.612700
      2 C04         21.3380     6.3950    58.0640 c3         1 JFI       0.103000
      3 C05         22.8190     6.1410    58.3350 c3         1 JFI       0.151800
      4 C07         23.5390     5.1780    56.2200 c6         1 JFI       0.133800
      5 C08         24.1320     5.6180    54.8820 c6         1 JFI       0.155100
      6 C10         25.9080     6.2700    56.2510 c6         1 JFI       0.155100
      7 C11         25.0180     6.5720    57.4610 c6         1 JFI       0.133800
      8 C12         19.3720     5.1180    61.0320 ca         1 JFI      -0.150600
      9 C13         19.6950     6.0240    62.0360 ca         1 JFI      -0.071000
     10 C14         19.0330     5.9890    63.2560 ca         1 JFI      -0.114000
     11 C15         18.0300     5.0580    63.4960 ca         1 JFI      -0.059300
     12 C16         17.2830     5.0360    64.8040 c3         1 JFI       0.007200
     13 C17         15.8730     5.5460    64.6500 ca         1 JFI      -0.040300
     14 C18         14.7720     4.7470    64.9300 ca         1 JFI      -0.160500
     15 C19         13.4960     5.2710    64.7720 ca         1 JFI       0.335900
     16 C21         14.3100     7.2730    64.0920 ca         1 JFI       0.335900
     17 C22         15.6210     6.8450    64.2170 ca         1 JFI      -0.160500
     18 C23         17.7130     4.1460    62.4890 ca         1 JFI      -0.114000
     19 C24         18.3830     4.1660    61.2790 ca         1 JFI      -0.071000
     20 N03         20.5440     6.2650    59.2650 ns         1 JFI      -0.507900
     21 N06         23.6250     6.2900    57.1440 n3         1 JFI      -0.721600
     22 N20         13.2550     6.5090    64.3620 nb         1 JFI      -0.663000
     23 O01         20.2020     4.0430    59.0880 o          1 JFI      -0.601100
     24 O09         25.2180     6.5090    55.0500 os         1 JFI      -0.438000
     25 H041        21.2080     7.4080    57.6830 h1         1 JFI       0.062200
     26 H042        20.9490     5.7140    57.3070 h1         1 JFI       0.062200
     27 H051        22.9510     5.1510    58.8020 h1         1 JFI       0.038200
     28 H052        23.1580     6.8770    59.0690 h1         1 JFI       0.038200
     29 H072        24.0470     4.2780    56.6050 h1         1 JFI       0.040450
     30 H081        23.3780     6.1490    54.2970 h1         1 JFI       0.045200
     31 H082        24.4370     4.7320    54.3080 h1         1 JFI       0.045200
     32 H101        26.2710     5.2350    56.2950 h1         1 JFI       0.045200
     33 H102        26.7880     6.9130    56.2610 h1         1 JFI       0.045200
     34 H111        25.3830     5.9710    58.3090 h1         1 JFI       0.040450
     35 H112        25.1060     7.6220    57.7560 h1         1 JFI       0.040450
     36 H131        20.4870     6.7500    61.8970 ha         1 JFI       0.123500
     37 H141        19.3070     6.6940    64.0310 ha         1 JFI       0.117000
     38 H162        17.2580     4.0200    65.2020 hc         1 JFI       0.061700
     39 H161        17.8090     5.6520    65.5360 hc         1 JFI       0.061700
     40 H181        14.8980     3.7270    65.2690 ha         1 JFI       0.122000
     41 H191        12.6300     4.6540    64.9890 h4         1 JFI       0.019100
     42 H211        14.1020     8.2840    63.7580 h4         1 JFI       0.019100
     43 H221        16.4320     7.5220    63.9770 ha         1 JFI       0.122000
     44 H231        16.9360     3.4100    62.6580 ha         1 JFI       0.117000
     45 H241        18.1310     3.4420    60.5150 ha         1 JFI       0.123500
     46 H031        20.3630     7.1030    59.7930 hn         1 JFI       0.316500
     47 H071        22.4990     4.8920    56.0580 h1         1 JFI       0.040450
@<TRIPOS>BOND
     1     1     8 1   
     2     1    20 1   
     3     1    23 2   
     4     2     3 1   
     5     2    20 1   
     6     2    25 1   
     7     2    26 1   
     8     3    21 1   
     9     3    27 1   
    10     3    28 1   
    11     4     5 1   
    12     4    21 1   
    13     4    29 1   
    14     4    47 1   
    15     5    24 1   
    16     5    30 1   
    17     5    31 1   
    18     6     7 1   
    19     6    24 1   
    20     6    32 1   
    21     6    33 1   
    22     7    21 1   
    23     7    34 1   
    24     7    35 1   
    25     8     9 ar  
    26     8    19 ar  
    27     9    10 ar  
    28     9    36 1   
    29    10    11 ar  
    30    10    37 1   
    31    11    12 1   
    32    11    18 ar  
    33    12    13 1   
    34    12    38 1   
    35    12    39 1   
    36    13    14 ar  
    37    13    17 ar  
    38    14    15 ar  
    39    14    40 1   
    40    15    22 ar  
    41    15    41 1   
    42    16    17 ar  
    43    16    22 ar  
    44    16    42 1   
    45    17    43 1   
    46    18    19 ar  
    47    18    44 1   
    48    19    45 1   
    49    20    46 1   
@<TRIPOS>SUBSTRUCTURE
     1 JFI         1 TEMP              0 ****  ****    0 ROOT
