@<TRIPOS>MOLECULE
JFI
   47    49     1     0     0
SMALL
No Charge or Current Charge


@<TRIPOS>ATOM
      1 C02         20.1690     5.2100    59.8770 c          1 JFI       0.612700
      2 C04         21.4690     6.5250    58.1600 c3         1 JFI       0.103000
      3 C05         22.9050     5.9530    58.2870 c3         1 JFI       0.151800
      4 C07         23.2800     5.5570    55.8380 c6         1 JFI       0.133800
      5 C08         24.2630     5.7320    54.6320 c6         1 JFI       0.155100
      6 C10         26.1360     6.0250    56.1200 c6         1 JFI       0.155100
      7 C11         25.2070     5.8110    57.3620 c6         1 JFI       0.133800
      8 C12         19.4180     5.2770    61.1940 ca         1 JFI      -0.150600
      9 C13         19.2510     6.4880    61.9090 ca         1 JFI      -0.071000
     10 C14         18.5490     6.5090    63.1270 ca         1 JFI      -0.114000
     11 C15         18.0010     5.3280    63.6570 ca         1 JFI      -0.059300
     12 C16         17.2340     5.3570    64.9730 c3         1 JFI       0.007200
     13 C17         15.7520     5.6240    64.7470 ca         1 JFI      -0.040300
     14 C18         14.8460     4.5700    64.5370 ca         1 JFI      -0.160500
     15 C19         13.4880     4.8600    64.3240 ca         1 JFI       0.335900
     16 C21         13.8690     7.1370    64.5090 ca         1 JFI       0.335900
     17 C22         15.2420     6.9340    64.7290 ca         1 JFI      -0.160500
     18 C23         18.1600     4.1220    62.9530 ca         1 JFI      -0.114000
     19 C24         18.8610     4.0960    61.7350 ca         1 JFI      -0.071000
     20 N03         20.6870     6.3940    59.3970 ns         1 JFI      -0.507900
     21 N06         23.7790     6.1850    57.1070 n3         1 JFI      -0.721600
     22 N20         12.9970     6.1210    64.3090 nb         1 JFI      -0.663000
     23 O01         20.3110     4.1620    59.2620 o          1 JFI      -0.601100
     24 O09         25.4010     6.5520    54.9880 os         1 JFI      -0.438000
     25 H041        21.5320     7.5900    57.9000 h1         1 JFI       0.062200
     26 H042        20.9350     6.0120    57.3500 h1         1 JFI       0.062200
     27 H051        22.8380     4.8760    58.4920 h1         1 JFI       0.038200
     28 H052        23.3650     6.4170    59.1700 h1         1 JFI       0.038200
     29 H072        23.1100     4.4800    55.9900 h1         1 JFI       0.040450
     30 H081        23.7370     6.2000    53.7880 h1         1 JFI       0.045200
     31 H082        24.6210     4.7470    54.3000 h1         1 JFI       0.045200
     32 H101        26.5990     5.0690    55.8350 h1         1 JFI       0.045200
     33 H102        26.9420     6.7260    56.3750 h1         1 JFI       0.045200
     34 H111        25.2720     4.7550    57.6620 h1         1 JFI       0.040450
     35 H112        25.6060     6.3990    58.2020 h1         1 JFI       0.040450
     36 H131        19.6580     7.4260    61.5380 ha         1 JFI       0.123500
     37 H141        18.4290     7.4500    63.6590 ha         1 JFI       0.117000
     38 H162        17.3660     4.4080    65.5060 hc         1 JFI       0.061700
     39 H161        17.6550     6.1230    65.6360 hc         1 JFI       0.061700
     40 H181        15.1830     3.5370    64.5350 ha         1 JFI       0.122000
     41 H191        12.7690     4.0580    64.1590 h4         1 JFI       0.019100
     42 H211        13.4540     8.1440    64.4910 h4         1 JFI       0.019100
     43 H221        15.8950     7.7890    64.8800 ha         1 JFI       0.122000
     44 H231        17.7370     3.2010    63.3470 ha         1 JFI       0.117000
     45 H241        18.9690     3.1480    61.2120 ha         1 JFI       0.123500
     46 H031        20.5280     7.2230    59.9540 hn         1 JFI       0.316500
     47 H071        22.3110     5.9900    55.5530 h1         1 JFI       0.040450
@<TRIPOS>BOND
     1     1     8 1   
     2     1    20 1   
     3     1    23 2   
     4     2     3 1   
     5     2    20 1   
     6     2    25 1   
     7     2    26 1   
     8     3    21 1   
     9     3    27 1   
    10     3    28 1   
    11     4     5 1   
    12     4    21 1   
    13     4    29 1   
    14     4    47 1   
    15     5    24 1   
    16     5    30 1   
    17     5    31 1   
    18     6     7 1   
    19     6    24 1   
    20     6    32 1   
    21     6    33 1   
    22     7    21 1   
    23     7    34 1   
    24     7    35 1   
    25     8     9 ar  
    26     8    19 ar  
    27     9    10 ar  
    28     9    36 1   
    29    10    11 ar  
    30    10    37 1   
    31    11    12 1   
    32    11    18 ar  
    33    12    13 1   
    34    12    38 1   
    35    12    39 1   
    36    13    14 ar  
    37    13    17 ar  
    38    14    15 ar  
    39    14    40 1   
    40    15    22 ar  
    41    15    41 1   
    42    16    17 ar  
    43    16    22 ar  
    44    16    42 1   
    45    17    43 1   
    46    18    19 ar  
    47    18    44 1   
    48    19    45 1   
    49    20    46 1   
@<TRIPOS>SUBSTRUCTURE
     1 JFI         1 TEMP              0 ****  ****    0 ROOT
