@<TRIPOS>MOLECULE
JFJ
   20    20     1     0     0
SMALL
No Charge or Current Charge


@<TRIPOS>ATOM
      1 C01          4.3130     0.9350    -0.2960 c3         1 JFJ       0.144100
      2 N02          2.9500     0.4120    -0.5130 n7         1 JFJ      -0.861400
      3 C03          2.1780     0.1500     0.7150 c3         1 JFJ       0.202100
      4 C04          0.7820    -0.3540     0.3710 ca         1 JFJ      -0.080300
      5 C05          0.5690    -1.7190     0.0930 ca         1 JFJ      -0.086000
      6 C06         -0.7190    -2.1880    -0.2220 ca         1 JFJ      -0.107000
      7 C07         -1.8030    -1.2930    -0.2600 ca         1 JFJ      -0.102000
      8 C08         -1.5950     0.0690     0.0150 ca         1 JFJ       0.119000
      9 C09         -0.3090     0.5380     0.3300 ca         1 JFJ      -0.104000
     10 Cl10        -2.9490     1.1890    -0.0340 cl         1 JFJ      -0.210000
     11 H011         4.2850     1.8930     0.2410 h1         1 JFJ       0.031033
     12 H012         4.9140     0.2290     0.2920 h1         1 JFJ       0.031033
     13 H013         4.8210     1.0980    -1.2560 h1         1 JFJ       0.031033
     14 H021         2.4260     1.0990    -1.0700 hn         1 JFJ       0.412000
     15 H031         2.6870    -0.6010     1.3360 h1         1 JFJ       0.038700
     16 H032         2.0910     1.0650     1.3180 h1         1 JFJ       0.038700
     17 H051         1.4050    -2.4160     0.1180 ha         1 JFJ       0.133000
     18 H061        -0.8770    -3.2430    -0.4360 ha         1 JFJ       0.118000
     19 H071        -2.8000    -1.6520    -0.5030 ha         1 JFJ       0.128000
     20 H091        -0.1600     1.5940     0.5410 ha         1 JFJ       0.125000
@<TRIPOS>BOND
     1     1     2 1   
     2     1    11 1   
     3     1    12 1   
     4     1    13 1   
     5     2     3 1   
     6     2    14 1   
     7     3     4 1   
     8     3    15 1   
     9     3    16 1   
    10     4     5 ar  
    11     4     9 ar  
    12     5     6 ar  
    13     5    17 1   
    14     6     7 ar  
    15     6    18 1   
    16     7     8 ar  
    17     7    19 1   
    18     8     9 ar  
    19     8    10 1   
    20     9    20 1   
@<TRIPOS>SUBSTRUCTURE
     1 JFJ         1 TEMP              0 ****  ****    0 ROOT
