@<TRIPOS>MOLECULE
JFJ
   20    20     1     0     0
SMALL
bcc


@<TRIPOS>ATOM
      1 C01          4.3510     0.6770    -0.1610 c3         1 JFJ       0.144100
      2 N02          3.0280     0.1760    -0.4750 n7         1 JFJ      -0.806200
      3 C03          2.0680     0.4520     0.5720 c3         1 JFJ       0.202100
      4 C04          0.7280    -0.1730     0.2820 ca         1 JFJ      -0.080300
      5 C05          0.6360    -1.4740    -0.2080 ca         1 JFJ      -0.104000
      6 C06         -0.6020    -2.0520    -0.4420 ca         1 JFJ      -0.125000
      7 C07         -1.7730    -1.3470    -0.1940 ca         1 JFJ      -0.120000
      8 C08         -1.6720    -0.0530     0.2890 ca         1 JFJ       0.027400
      9 C09         -0.4410     0.5400     0.5250 ca         1 JFJ      -0.122000
     10 CL10        -3.1200     0.8560     0.5970 cl         1 JFJ      -0.118400
     11 H011         4.3850     1.7500     0.0730 h1         1 JFJ       0.031033
     12 H012         4.7520     0.1420     0.7030 h1         1 JFJ       0.031033
     13 H013         5.0210     0.4960    -1.0000 h1         1 JFJ       0.031033
     14 H021         2.7070     0.6000    -1.3370 hn         1 JFJ       0.356800
     15 H031         2.4580     0.0260     1.5030 h1         1 JFJ       0.038700
     16 H032         1.9330     1.5260     0.7670 h1         1 JFJ       0.038700
     17 H051         1.5420    -2.0310    -0.4100 ha         1 JFJ       0.151000
     18 H061        -0.6640    -3.0640    -0.8210 ha         1 JFJ       0.136000
     19 H071        -2.7390    -1.7970    -0.3770 ha         1 JFJ       0.146000
     20 H091        -0.3900     1.5570     0.8940 ha         1 JFJ       0.143000
@<TRIPOS>BOND
     1     1     2 1   
     2     1    11 1   
     3     1    12 1   
     4     1    13 1   
     5     2     3 1   
     6     2    14 1   
     7     3     4 1   
     8     3    15 1   
     9     3    16 1   
    10     4     5 ar  
    11     4     9 ar  
    12     5     6 ar  
    13     5    17 1   
    14     6     7 ar  
    15     6    18 1   
    16     7     8 ar  
    17     7    19 1   
    18     8     9 ar  
    19     8    10 1   
    20     9    20 1   
@<TRIPOS>SUBSTRUCTURE
     1 JFJ         1 TEMP              0 ****  ****    0 ROOT
