@<TRIPOS>MOLECULE
JFL
   72    77     1     0     0
SMALL
abcg2


@<TRIPOS>ATOM
      1 CBH        -71.5720    29.7420     4.5720 cy         1 JFL      -0.077900
      2 CBI        -72.6160    29.4610     5.6680 cy         1 JFL      -0.092400
      3 CBJ        -71.4720    29.4380     6.6960 cy         1 JFL      -0.077900
      4 CBG        -70.5960    30.2060     5.6730 cy         1 JFL      -0.120000
      5 CAU        -69.1660    29.8410     5.5530 cc         1 JFL       0.428800
      6 NAV        -68.1680    30.6120     6.0370 na         1 JFL      -0.283500
      7 NAT        -68.6850    28.7410     5.0190 nd         1 JFL      -0.676000
      8 CAS        -67.3340    28.8070     5.1650 cd         1 JFL       0.270900
      9 CAK        -66.9820    29.9710     5.8030 cc         1 JFL      -0.251500
     10 CAH        -65.7060    30.5120     6.1700 cc         1 JFL       0.207500
     11 CAI        -65.3180    31.6830     6.7380 cd         1 JFL      -0.116000
     12 OAG        -64.6220    29.7290     5.8940 os         1 JFL      -0.208000
     13 CAA        -63.5350    30.4030     6.2860 cc         1 JFL       0.297800
     14 CAB        -63.8950    31.6180     6.8150 cd         1 JFL      -0.254600
     15 CAC        -62.9100    32.5480     7.2810 c          1 JFL       0.596600
     16 OAM        -63.1370    33.6480     7.7700 o          1 JFL      -0.547000
     17 NAD        -61.6060    32.0860     7.1220 n          1 JFL      -0.285000
     18 CAL        -60.5390    32.9720     7.5690 c3         1 JFL       0.079300
     19 CAE        -61.2850    30.8720     6.5890 cd         1 JFL      -0.015400
     20 CAF        -62.2030    29.9680     6.1500 cc         1 JFL      -0.204000
     21 CAJ        -61.8140    28.6780     5.5500 ca         1 JFL      -0.069800
     22 CAN        -61.1140    28.6430     4.3480 ca         1 JFL      -0.056000
     23 CAO        -60.7120    27.4480     3.7620 ca         1 JFL      -0.145300
     24 CBK        -59.9540    27.4220     2.4380 c3         1 JFL       0.237300
     25 CBL        -60.8220    26.7700     1.3650 c3         1 JFL      -0.100100
     26 CBM        -58.6370    26.6570     2.5950 c3         1 JFL      -0.100100
     27 OBN        -59.6910    28.7340     1.9780 oh         1 JFL      -0.655000
     28 CAP        -61.0490    26.2670     4.4180 ca         1 JFL      -0.062000
     29 CAQ        -61.7500    26.2710     5.6140 ca         1 JFL      -0.187000
     30 CAR        -62.1320    27.4770     6.1850 ca         1 JFL       0.158100
     31 OAW        -62.8100    27.5770     7.3600 os         1 JFL      -0.239200
     32 CAX        -63.0170    26.4450     8.1130 ca         1 JFL       0.064100
     33 CAY        -64.2250    25.7670     7.9750 ca         1 JFL      -0.043300
     34 CBE        -65.2670    26.2340     7.0050 c3         1 JFL      -0.050300
     35 CAZ        -64.4460    24.6500     8.7740 ca         1 JFL      -0.155000
     36 CBA        -63.4720    24.2540     9.6660 ca         1 JFL       0.179000
     37 FBD        -63.6970    23.1690    10.4260 f          1 JFL      -0.176000
     38 CBB        -62.2770    24.9310     9.8060 ca         1 JFL      -0.155000
     39 CBC        -62.0320    26.0510     9.0160 ca         1 JFL      -0.043300
     40 CBF        -60.7470    26.8130     9.1390 c3         1 JFL      -0.050300
     41 H1         -71.2250    28.8220     4.1020 hc         1 JFL       0.060700
     42 H2         -71.8200    30.4630     3.7940 hc         1 JFL       0.060700
     43 H3         -73.2810    30.3120     5.8230 hc         1 JFL       0.050700
     44 H4         -73.2220    28.5610     5.5690 hc         1 JFL       0.050700
     45 H5         -71.6360    29.9110     7.6640 hc         1 JFL       0.060700
     46 H6         -71.0930    28.4270     6.8570 hc         1 JFL       0.060700
     47 H7         -70.6890    31.2820     5.8390 hc         1 JFL       0.054700
     48 H8         -68.2890    31.5020     6.4980 hn         1 JFL       0.356000
     49 H10        -66.6800    28.0300     4.8010 h4         1 JFL       0.045100
     50 H11        -65.9590    32.4910     7.0520 ha         1 JFL       0.150000
     51 H12        -60.6210    33.1660     8.6360 h1         1 JFL       0.053700
     52 H13        -59.5810    32.5000     7.3720 h1         1 JFL       0.053700
     53 H14        -60.5790    33.9190     7.0350 h1         1 JFL       0.053700
     54 H15        -60.2280    30.6520     6.5350 h4         1 JFL       0.204000
     55 H16        -60.8970    29.5860     3.8640 ha         1 JFL       0.126000
     56 H17        -61.0880    25.7520     1.6470 hc         1 JFL       0.044700
     57 H18        -61.7470    27.3280     1.2150 hc         1 JFL       0.044700
     58 H19        -60.2880    26.7250     0.4140 hc         1 JFL       0.044700
     59 H20        -58.0020    27.1260     3.3500 hc         1 JFL       0.044700
     60 H21        -58.8000    25.6230     2.8980 hc         1 JFL       0.044700
     61 H22        -58.0930    26.6440     1.6490 hc         1 JFL       0.044700
     62 H23        -58.9900    29.1160     2.5180 ho         1 JFL       0.440000
     63 H24        -60.7690    25.3090     3.9980 ha         1 JFL       0.113000
     64 H25        -61.9860    25.3290     6.0930 ha         1 JFL       0.130000
     65 H26        -64.8820    26.2850     5.9850 hc         1 JFL       0.052533
     66 H27        -66.1220    25.5610     7.0020 hc         1 JFL       0.052533
     67 H28        -65.6280    27.2310     7.2610 hc         1 JFL       0.052533
     68 H29        -65.3730    24.0960     8.6960 ha         1 JFL       0.135000
     69 H30        -61.5380    24.5950    10.5220 ha         1 JFL       0.135000
     70 H31        -60.9250    27.8740     9.3190 hc         1 JFL       0.052533
     71 H32        -60.1480    26.4270     9.9610 hc         1 JFL       0.052533
     72 H33        -60.1470    26.7380     8.2300 hc         1 JFL       0.052533
@<TRIPOS>BOND
     1     1     2 1   
     2     1     4 1   
     3     1    41 1   
     4     1    42 1   
     5     2     3 1   
     6     2    43 1   
     7     2    44 1   
     8     3     4 1   
     9     3    45 1   
    10     3    46 1   
    11     4     5 1   
    12     4    47 1   
    13     5     6 1   
    14     5     7 2   
    15     6     9 1   
    16     6    48 1   
    17     7     8 1   
    18     8     9 2   
    19     8    49 1   
    20     9    10 1   
    21    10    11 2   
    22    10    12 1   
    23    11    14 1   
    24    11    50 1   
    25    12    13 1   
    26    13    14 2   
    27    13    20 1   
    28    14    15 1   
    29    15    16 2   
    30    15    17 1   
    31    17    18 1   
    32    17    19 1   
    33    18    51 1   
    34    18    52 1   
    35    18    53 1   
    36    19    20 2   
    37    19    54 1   
    38    20    21 1   
    39    21    22 ar  
    40    21    30 ar  
    41    22    23 ar  
    42    22    55 1   
    43    23    24 1   
    44    23    28 ar  
    45    24    25 1   
    46    24    26 1   
    47    24    27 1   
    48    25    56 1   
    49    25    57 1   
    50    25    58 1   
    51    26    59 1   
    52    26    60 1   
    53    26    61 1   
    54    27    62 1   
    55    28    29 ar  
    56    28    63 1   
    57    29    30 ar  
    58    29    64 1   
    59    30    31 1   
    60    31    32 1   
    61    32    33 ar  
    62    32    39 ar  
    63    33    34 1   
    64    33    35 ar  
    65    34    65 1   
    66    34    66 1   
    67    34    67 1   
    68    35    36 ar  
    69    35    68 1   
    70    36    37 1   
    71    36    38 ar  
    72    38    39 ar  
    73    38    69 1   
    74    39    40 1   
    75    40    70 1   
    76    40    71 1   
    77    40    72 1   
@<TRIPOS>SUBSTRUCTURE
     1 JFL         1 TEMP              0 ****  ****    0 ROOT
