@<TRIPOS>MOLECULE
JFL
   72    77     1     0     0
SMALL
No Charge or Current Charge


@<TRIPOS>ATOM
      1 CBH        -71.8900    28.8810     6.4050 cy         1 JFL      -0.077900
      2 CBI        -72.7690    30.0980     6.8440 cy         1 JFL      -0.092400
      3 CBJ        -71.4130    30.8620     6.9990 cy         1 JFL      -0.077900
      4 CBG        -70.8940    29.9500     5.8300 cy         1 JFL      -0.120000
      5 CAU        -69.4340    29.6480     5.6640 cc         1 JFL       0.428800
      6 NAV        -68.3850    30.4350     6.0750 na         1 JFL      -0.283500
      7 NAT        -68.9810    28.5490     5.0720 nd         1 JFL      -0.676000
      8 CAS        -67.6000    28.6190     5.1050 cd         1 JFL       0.270900
      9 CAK        -67.2270    29.7780     5.7250 cc         1 JFL      -0.251500
     10 CAH        -65.8850    30.2210     5.9560 cc         1 JFL       0.207500
     11 CAI        -65.5030    31.3960     6.5510 cd         1 JFL      -0.116000
     12 OAG        -64.7920    29.4840     5.5690 os         1 JFL      -0.208000
     13 CAA        -63.7050    30.2250     5.9680 cc         1 JFL       0.297800
     14 CAB        -64.0880    31.3960     6.5350 cd         1 JFL      -0.254600
     15 CAC        -63.1070    32.3910     6.9930 c          1 JFL       0.596600
     16 OAM        -63.4360    33.4490     7.5130 o          1 JFL      -0.547000
     17 NAD        -61.7530    32.0210     6.7780 n          1 JFL      -0.285000
     18 CAL        -60.7040    32.9660     7.2210 c3         1 JFL       0.079300
     19 CAE        -61.3910    30.8020     6.1820 cd         1 JFL      -0.015400
     20 CAF        -62.3330    29.8860     5.7370 cc         1 JFL      -0.204000
     21 CAJ        -61.8090    28.5970     5.2450 ca         1 JFL      -0.069800
     22 CAN        -60.6670    28.5860     4.4110 ca         1 JFL      -0.056000
     23 CAO        -60.1200    27.3840     3.9050 ca         1 JFL      -0.145300
     24 CBK        -58.8880    27.4510     2.9760 c3         1 JFL       0.237300
     25 CBL        -59.2660    28.1270     1.6380 c3         1 JFL      -0.100100
     26 CBM        -58.2240    26.0790     2.7020 c3         1 JFL      -0.100100
     27 OBN        -57.8990    28.2640     3.6050 oh         1 JFL      -0.655000
     28 CAP        -60.7430    26.1650     4.2540 ca         1 JFL      -0.062000
     29 CAQ        -61.8610    26.1560     5.1000 ca         1 JFL      -0.187000
     30 CAR        -62.3920    27.3570     5.6020 ca         1 JFL       0.158100
     31 OAW        -63.4210    27.3090     6.5170 os         1 JFL      -0.239200
     32 CAX        -63.4890    26.3430     7.4970 ca         1 JFL       0.064100
     33 CAY        -64.5710    25.4340     7.4910 ca         1 JFL      -0.043300
     34 CBE        -65.6540    25.5210     6.4230 c3         1 JFL      -0.050300
     35 CAZ        -64.6460    24.4420     8.4870 ca         1 JFL      -0.155000
     36 CBA        -63.6570    24.3630     9.4770 ca         1 JFL       0.179000
     37 FBD        -63.7370    23.4080    10.4280 f          1 JFL      -0.176000
     38 CBB        -62.5900    25.2720     9.4930 ca         1 JFL      -0.155000
     39 CBC        -62.4980    26.2750     8.5080 ca         1 JFL      -0.043300
     40 CBF        -61.3430    27.2720     8.5640 c3         1 JFL      -0.050300
     41 H1         -71.4900    28.2820     7.2320 hc         1 JFL       0.060700
     42 H2         -72.3400    28.2030     5.6710 hc         1 JFL       0.060700
     43 H3         -73.4290    30.4910     6.0610 hc         1 JFL       0.050700
     44 H4         -73.3520    29.9630     7.7610 hc         1 JFL       0.050700
     45 H5         -71.4430    31.9370     6.7920 hc         1 JFL       0.060700
     46 H6         -70.9100    30.7050     7.9610 hc         1 JFL       0.060700
     47 H7         -71.1950    30.3210     4.8430 hc         1 JFL       0.054700
     48 H8         -68.4740    31.3270     6.5470 hn         1 JFL       0.356000
     49 H10        -66.9700    27.8440     4.6840 h4         1 JFL       0.045100
     50 H11        -66.1540    32.1730     6.9370 ha         1 JFL       0.150000
     51 H12        -60.7630    33.1000     8.3090 h1         1 JFL       0.053700
     52 H13        -59.7050    32.5910     6.9650 h1         1 JFL       0.053700
     53 H14        -60.8490    33.9380     6.7320 h1         1 JFL       0.053700
     54 H15        -60.3170    30.6440     6.1360 h4         1 JFL       0.204000
     55 H16        -60.2130    29.5300     4.1220 ha         1 JFL       0.126000
     56 H17        -60.0430    27.5490     1.1230 hc         1 JFL       0.044700
     57 H18        -59.6490    29.1410     1.7970 hc         1 JFL       0.044700
     58 H19        -58.3960    28.1960     0.9740 hc         1 JFL       0.044700
     59 H20        -57.9600    25.5740     3.6390 hc         1 JFL       0.044700
     60 H21        -58.8930    25.4250     2.1300 hc         1 JFL       0.044700
     61 H22        -57.3050    26.2030     2.1170 hc         1 JFL       0.044700
     62 H23        -57.7960    27.9120     4.5140 ho         1 JFL       0.440000
     63 H24        -60.3730    25.2120     3.8870 ha         1 JFL       0.113000
     64 H25        -62.3110    25.2050     5.3750 ha         1 JFL       0.130000
     65 H26        -65.2200    25.6040     5.4200 hc         1 JFL       0.052533
     66 H27        -66.3020    24.6360     6.4270 hc         1 JFL       0.052533
     67 H28        -66.2900    26.3980     6.5890 hc         1 JFL       0.052533
     68 H29        -65.4690    23.7330     8.4980 ha         1 JFL       0.135000
     69 H30        -61.8400    25.1980    10.2750 ha         1 JFL       0.135000
     70 H31        -61.6910    28.2950     8.3780 hc         1 JFL       0.052533
     71 H32        -60.8540    27.2710     9.5460 hc         1 JFL       0.052533
     72 H33        -60.5800    27.0330     7.8150 hc         1 JFL       0.052533
@<TRIPOS>BOND
     1     1     2 1   
     2     1     4 1   
     3     1    41 1   
     4     1    42 1   
     5     2     3 1   
     6     2    43 1   
     7     2    44 1   
     8     3     4 1   
     9     3    45 1   
    10     3    46 1   
    11     4     5 1   
    12     4    47 1   
    13     5     6 1   
    14     5     7 2   
    15     6     9 1   
    16     6    48 1   
    17     7     8 1   
    18     8     9 2   
    19     8    49 1   
    20     9    10 1   
    21    10    11 2   
    22    10    12 1   
    23    11    14 1   
    24    11    50 1   
    25    12    13 1   
    26    13    14 2   
    27    13    20 1   
    28    14    15 1   
    29    15    16 2   
    30    15    17 1   
    31    17    18 1   
    32    17    19 1   
    33    18    51 1   
    34    18    52 1   
    35    18    53 1   
    36    19    20 2   
    37    19    54 1   
    38    20    21 1   
    39    21    22 ar  
    40    21    30 ar  
    41    22    23 ar  
    42    22    55 1   
    43    23    24 1   
    44    23    28 ar  
    45    24    25 1   
    46    24    26 1   
    47    24    27 1   
    48    25    56 1   
    49    25    57 1   
    50    25    58 1   
    51    26    59 1   
    52    26    60 1   
    53    26    61 1   
    54    27    62 1   
    55    28    29 ar  
    56    28    63 1   
    57    29    30 ar  
    58    29    64 1   
    59    30    31 1   
    60    31    32 1   
    61    32    33 ar  
    62    32    39 ar  
    63    33    34 1   
    64    33    35 ar  
    65    34    65 1   
    66    34    66 1   
    67    34    67 1   
    68    35    36 ar  
    69    35    68 1   
    70    36    37 1   
    71    36    38 ar  
    72    38    39 ar  
    73    38    69 1   
    74    39    40 1   
    75    40    70 1   
    76    40    71 1   
    77    40    72 1   
@<TRIPOS>SUBSTRUCTURE
     1 JFL         1 TEMP              0 ****  ****    0 ROOT
