@<TRIPOS>MOLECULE
JFM
   26    26     1     0     0
SMALL
No Charge or Current Charge


@<TRIPOS>ATOM
      1 C10          4.0790     1.2120     0.3520 ca         1 JFM      -0.108000
      2 C13          2.8250    -1.2350    -0.2250 ca         1 JFM      -0.104500
      3 C01         -2.9920     1.4720     1.0260 c3         1 JFM      -0.387100
      4 S02         -3.0230    -0.1330     0.2500 s6         1 JFM       1.192100
      5 O03         -2.8040    -1.1720     1.2580 o          1 JFM      -0.527500
      6 O04         -4.1610    -0.2190    -0.6650 o          1 JFM      -0.527500
      7 N05         -1.6630    -0.1020    -0.7110 n7         1 JFM      -0.870300
      8 C06         -0.3360    -0.0720    -0.0690 c3         1 JFM       0.200800
      9 C07          0.7720    -0.0430    -1.1390 c3         1 JFM      -0.032100
     10 C08          2.1640    -0.0260    -0.5190 ca         1 JFM      -0.091300
     11 C09          2.7970     1.1970    -0.2260 ca         1 JFM      -0.104500
     12 C11          4.7340     0.0030     0.6420 ca         1 JFM      -0.106000
     13 C12          4.1060    -1.2200     0.3540 ca         1 JFM      -0.108000
     14 H101         4.5630     2.1600     0.5760 ha         1 JFM       0.114000
     15 H131         2.3460    -2.1870    -0.4430 ha         1 JFM       0.112000
     16 H011        -2.0890     1.5380     1.6410 h1         1 JFM       0.100700
     17 H012        -3.0010     2.2330     0.2400 h1         1 JFM       0.100700
     18 H013        -3.8900     1.5450     1.6490 h1         1 JFM       0.100700
     19 H051        -1.8030     0.7730    -1.2130 hn         1 JFM       0.477000
     20 H061        -0.2250     0.8090     0.5780 h1         1 JFM       0.055200
     21 H062        -0.1900    -0.9640     0.5570 h1         1 JFM       0.055200
     22 H071         0.6610    -0.9170    -1.7910 hc         1 JFM       0.058700
     23 H072         0.6350     0.8370    -1.7780 hc         1 JFM       0.058700
     24 H091         2.2970     2.1390    -0.4450 ha         1 JFM       0.112000
     25 H111         5.7250     0.0150     1.0890 ha         1 JFM       0.114000
     26 H121         4.6120    -2.1570     0.5780 ha         1 JFM       0.114000
@<TRIPOS>BOND
     1     1    11 ar  
     2     1    12 ar  
     3     1    14 1   
     4     2    10 ar  
     5     2    13 ar  
     6     2    15 1   
     7     3     4 1   
     8     3    16 1   
     9     3    17 1   
    10     3    18 1   
    11     4     5 2   
    12     4     6 2   
    13     4     7 1   
    14     7     8 1   
    15     7    19 1   
    16     8     9 1   
    17     8    20 1   
    18     8    21 1   
    19     9    10 1   
    20     9    22 1   
    21     9    23 1   
    22    10    11 ar  
    23    11    24 1   
    24    12    13 ar  
    25    12    25 1   
    26    13    26 1   
@<TRIPOS>SUBSTRUCTURE
     1 JFM         1 TEMP              0 ****  ****    0 ROOT
