@<TRIPOS>MOLECULE
JFM
   26    26     1     0     0
SMALL
abcg2


@<TRIPOS>ATOM
      1 C10          4.1200     1.1830     0.2170 ca         1 JFM      -0.108000
      2 C13          2.7550    -1.2070    -0.1050 ca         1 JFM      -0.104500
      3 C01         -3.0710     1.3180     1.2240 c3         1 JFM      -0.387100
      4 S02         -2.9500    -0.1040     0.1610 s6         1 JFM       1.192100
      5 O03         -2.7460    -1.2770     0.9980 o          1 JFM      -0.527500
      6 O04         -4.0710    -0.0740    -0.7660 o          1 JFM      -0.527500
      7 N05         -1.5910     0.0850    -0.7490 n7         1 JFM      -0.870300
      8 C06         -0.2790     0.0640    -0.1080 c3         1 JFM       0.200800
      9 C07          0.8040    -0.0340    -1.1790 c3         1 JFM      -0.032100
     10 C08          2.1730    -0.0250    -0.5590 ca         1 JFM      -0.091300
     11 C09          2.8700     1.1690    -0.3890 ca         1 JFM      -0.104500
     12 C11          4.6900    -0.0010     0.6650 ca         1 JFM      -0.106000
     13 C12          4.0030    -1.1980     0.5020 ca         1 JFM      -0.108000
     14 H101         4.6480     2.1200     0.3370 ha         1 JFM       0.114000
     15 H131         2.2280    -2.1460    -0.2330 ha         1 JFM       0.112000
     16 H011        -2.1970     1.3690     1.8700 h1         1 JFM       0.100700
     17 H012        -3.1390     2.2160     0.6140 h1         1 JFM       0.100700
     18 H013        -3.9690     1.2110     1.8290 h1         1 JFM       0.100700
     19 H051        -1.7000     0.8300    -1.4300 hn         1 JFM       0.477000
     20 H061        -0.1100     0.9530     0.5090 h1         1 JFM       0.055200
     21 H062        -0.2240    -0.8060     0.5460 h1         1 JFM       0.055200
     22 H071         0.6510    -0.9470    -1.7580 hc         1 JFM       0.058700
     23 H072         0.7040     0.8060    -1.8710 hc         1 JFM       0.058700
     24 H091         2.4330     2.0970    -0.7370 ha         1 JFM       0.112000
     25 H111         5.6640     0.0080     1.1370 ha         1 JFM       0.114000
     26 H121         4.4410    -2.1260     0.8430 ha         1 JFM       0.114000
@<TRIPOS>BOND
     1     1    11 ar  
     2     1    12 ar  
     3     1    14 1   
     4     2    10 ar  
     5     2    13 ar  
     6     2    15 1   
     7     3     4 1   
     8     3    16 1   
     9     3    17 1   
    10     3    18 1   
    11     4     5 2   
    12     4     6 2   
    13     4     7 1   
    14     7     8 1   
    15     7    19 1   
    16     8     9 1   
    17     8    20 1   
    18     8    21 1   
    19     9    10 1   
    20     9    22 1   
    21     9    23 1   
    22    10    11 ar  
    23    11    24 1   
    24    12    13 ar  
    25    12    25 1   
    26    13    26 1   
@<TRIPOS>SUBSTRUCTURE
     1 JFM         1 TEMP              0 ****  ****    0 ROOT
