@<TRIPOS>MOLECULE
JFN
   17    16     1     0     0
SMALL
No Charge or Current Charge


@<TRIPOS>ATOM
      1 C07          2.7310    -0.1670     0.1040 c3         1 JFN       0.144900
      2 C08         -1.0170     0.0290    -0.3180 c3         1 JFN       0.154500
      3 C09          0.3410    -0.5340     0.2080 c3         1 JFN       0.167600
      4 C15         -2.2000    -0.8790     0.0690 c3         1 JFN      -0.133100
      5 N04         -1.3000     1.4090     0.1510 n8         1 JFN      -0.972200
      6 O02          1.4250     0.2600    -0.3160 os         1 JFN      -0.433000
      7 H02          2.8240    -0.1220     1.1970 h1         1 JFN       0.026033
      8 H03          2.9270    -1.1980    -0.2200 h1         1 JFN       0.026033
      9 H01          3.5030     0.4810    -0.3320 h1         1 JFN       0.026033
     10 H081        -0.9640     0.0500    -1.4170 h1         1 JFN       0.071700
     11 H091         0.3450    -0.5200     1.3070 h1         1 JFN       0.016200
     12 H092         0.4470    -1.5770    -0.1180 h1         1 JFN       0.016200
     13 H151        -2.3030    -0.9500     1.1590 hc         1 JFN       0.038033
     14 H152        -3.1410    -0.4970    -0.3450 hc         1 JFN       0.038033
     15 H153        -2.0480    -1.8920    -0.3250 hc         1 JFN       0.038033
     16 H1          -2.2610     1.6580    -0.1080 hn         1 JFN       0.388000
     17 H042        -1.3160     1.4150     1.1760 hn         1 JFN       0.388000
@<TRIPOS>BOND
     1     1     6 1   
     2     1     7 1   
     3     1     8 1   
     4     1     9 1   
     5     2     3 1   
     6     2     4 1   
     7     2     5 1   
     8     2    10 1   
     9     3     6 1   
    10     3    11 1   
    11     3    12 1   
    12     4    13 1   
    13     4    14 1   
    14     4    15 1   
    15     5    16 1   
    16     5    17 1   
@<TRIPOS>SUBSTRUCTURE
     1 JFN         1 TEMP              0 ****  ****    0 ROOT
