@<TRIPOS>MOLECULE
JFN
   17    16     1     0     0
SMALL
abcg2


@<TRIPOS>ATOM
      1 C07          2.6300    -0.1790     0.1090 c3         1 JFN       0.144900
      2 C08         -1.0140     0.0440    -0.3100 c3         1 JFN       0.154500
      3 C09          0.3190    -0.4870     0.1880 c3         1 JFN       0.167600
      4 C15         -2.1280    -0.9220     0.0900 c3         1 JFN      -0.133100
      5 N04         -1.2190     1.4080     0.1620 n8         1 JFN      -0.972200
      6 O02          1.3750     0.2950    -0.3040 os         1 JFN      -0.433000
      7 H02          2.7300    -0.1840     1.2020 h1         1 JFN       0.026033
      8 H03          2.8250    -1.1980    -0.2470 h1         1 JFN       0.026033
      9 H01          3.3940     0.4800    -0.3030 h1         1 JFN       0.026033
     10 H081        -0.9710     0.0820    -1.4040 h1         1 JFN       0.071700
     11 H091         0.3220    -0.4970     1.2910 h1         1 JFN       0.016200
     12 H092         0.4310    -1.5340    -0.1310 h1         1 JFN       0.016200
     13 H151        -2.1990    -1.0070     1.1770 hc         1 JFN       0.038033
     14 H152        -3.0920    -0.5690    -0.2790 hc         1 JFN       0.038033
     15 H153        -1.9670    -1.9230    -0.3150 hc         1 JFN       0.038033
     16 H1          -2.0870     1.7640    -0.2210 hn         1 JFN       0.388000
     17 H042        -1.3540     1.3940     1.1670 hn         1 JFN       0.388000
@<TRIPOS>BOND
     1     1     6 1   
     2     1     7 1   
     3     1     8 1   
     4     1     9 1   
     5     2     3 1   
     6     2     4 1   
     7     2     5 1   
     8     2    10 1   
     9     3     6 1   
    10     3    11 1   
    11     3    12 1   
    12     4    13 1   
    13     4    14 1   
    14     4    15 1   
    15     5    16 1   
    16     5    17 1   
@<TRIPOS>SUBSTRUCTURE
     1 JFN         1 TEMP              0 ****  ****    0 ROOT
