@<TRIPOS>MOLECULE
JFO
   38    41     1     0     0
SMALL
No Charge or Current Charge


@<TRIPOS>ATOM
      1 C4          94.1450    -8.2870    12.3410 ca         1 JFO      -0.175000
      2 C5          92.4690    -8.6890    14.0540 ca         1 JFO       0.224000
      3 C6          92.6980    -7.3250    14.4860 ca         1 JFO       0.438500
      4 C7          90.9540    -9.1290    15.6940 cc         1 JFO       0.670900
      5 C10         95.4200    -4.8120    12.6340 c3         1 JFO       0.155900
      6 C20         94.3500    -2.8490    16.3840 ca         1 JFO      -0.118000
      7 C21         94.0330    -2.1470    15.2100 ca         1 JFO      -0.094000
      8 C22         93.0020    -2.6120    14.3750 ca         1 JFO      -0.118000
      9 C1          94.3160    -6.9910    12.8350 ca         1 JFO       0.597300
     10 N2          93.6140    -6.5230    13.8830 nb         1 JFO      -0.756000
     11 C3          93.2170    -9.1440    12.9530 ca         1 JFO      -0.030000
     12 N8          91.5660    -9.6320    14.6490 nd         1 JFO      -0.767000
     13 O9          95.2400    -6.1810    12.2200 os         1 JFO      -0.454300
     14 N11         90.1600   -10.0080    16.2880 nv         1 JFO      -1.062900
     15 C12         91.1100    -7.8040    16.1970 cc         1 JFO      -0.232000
     16 N13         91.9190    -6.9240    15.5660 na         1 JFO      -0.085300
     17 C14         91.9070    -5.7230    16.2360 cc         1 JFO       0.442400
     18 N15         91.1100    -5.8390    17.3010 nd         1 JFO      -0.561300
     19 C16         90.5910    -7.1290    17.2770 cd         1 JFO       0.073400
     20 C18         92.6250    -4.5020    15.8750 ca         1 JFO      -0.071900
     21 C19         93.6450    -4.0170    16.7190 ca         1 JFO      -0.065000
     22 C23         92.2980    -3.7830    14.7050 ca         1 JFO       0.157000
     23 Cl24        90.9810    -4.3020    13.6500 cl         1 JFO      -0.189000
     24 H1          94.7350    -8.6210    11.4940 ha         1 JFO       0.143000
     25 H2          96.2050    -4.3310    12.0360 h1         1 JFO       0.048700
     26 H3          94.4940    -4.2380    12.5010 h1         1 JFO       0.048700
     27 H4          95.7160    -4.7550    13.6900 h1         1 JFO       0.048700
     28 H5          89.3450    -6.7890    19.0120 hc         1 JFO       0.049700
     29 H6          88.7070    -7.9920    17.8860 hc         1 JFO       0.049700
     30 H7          90.0740    -8.3980    18.9470 hc         1 JFO       0.049700
     31 H8          95.1420    -2.4870    17.0360 ha         1 JFO       0.120000
     32 H9          94.5770    -1.2400    14.9520 ha         1 JFO       0.117000
     33 H10         92.7450    -2.0620    13.4740 ha         1 JFO       0.129000
     34 H11         93.0830   -10.1580    12.5850 ha         1 JFO       0.140000
     35 H12         90.3180   -10.9590    15.9810 hn         1 JFO       0.488000
     36 H13         90.0040    -9.8810    17.2780 hn         1 JFO       0.488000
     37 H14         93.8970    -4.5560    17.6310 ha         1 JFO       0.126000
     38 C17         89.6280    -7.6040    18.3360 c3         1 JFO      -0.022900
@<TRIPOS>BOND
     1     1     9 ar  
     2     1    11 ar  
     3     1    24 1   
     4     2     3 ar  
     5     2    11 ar  
     6     2    12 1   
     7     3    10 ar  
     8     3    16 1   
     9     4    12 2   
    10     4    14 1   
    11     4    15 1   
    12     5    13 1   
    13     5    25 1   
    14     5    26 1   
    15     5    27 1   
    16     6     7 ar  
    17     6    21 ar  
    18     6    31 1   
    19     7     8 ar  
    20     7    32 1   
    21     8    22 ar  
    22     8    33 1   
    23     9    10 ar  
    24     9    13 1   
    25    11    34 1   
    26    14    35 1   
    27    14    36 1   
    28    15    16 1   
    29    15    19 2   
    30    16    17 1   
    31    17    18 2   
    32    17    20 1   
    33    18    19 1   
    34    19    38 1   
    35    20    21 ar  
    36    20    22 ar  
    37    21    37 1   
    38    22    23 1   
    39    28    38 1   
    40    29    38 1   
    41    30    38 1   
@<TRIPOS>SUBSTRUCTURE
     1 JFO         1 TEMP              0 ****  ****    0 ROOT
