@<TRIPOS>MOLECULE
JFO
   38    41     1     0     0
SMALL
bcc


@<TRIPOS>ATOM
      1 C4          94.2220    -8.3000    12.3610 ca         1 JFO      -0.258300
      2 C5          92.5810    -8.7340    14.0750 ca         1 JFO       0.289300
      3 C6          92.7590    -7.4000    14.4430 ca         1 JFO       0.438500
      4 C7          91.0400    -9.1770    15.7170 cc         1 JFO       0.736200
      5 C10         95.1720    -4.7980    12.6350 c3         1 JFO       0.132700
      6 C20         94.3880    -2.9300    16.4080 ca         1 JFO      -0.136000
      7 C21         94.0460    -2.1640    15.3030 ca         1 JFO      -0.112000
      8 C22         93.0230    -2.5740    14.4590 ca         1 JFO      -0.136000
      9 C1          94.2960    -6.9810    12.8370 ca         1 JFO       0.662600
     10 N2          93.5840    -6.5520    13.8520 nb         1 JFO      -0.756000
     11 C3          93.3610    -9.1630    12.9890 ca         1 JFO      -0.113300
     12 N8          91.7290    -9.6060    14.7020 nd         1 JFO      -0.767000
     13 O9          95.1340    -6.1530    12.2130 os         1 JFO      -0.431100
     14 N11         90.1660   -10.0100    16.3210 nv         1 JFO      -0.952500
     15 C12         91.1510    -7.8220    16.1940 cc         1 JFO      -0.246600
     16 N13         92.0070    -6.9590    15.5280 na         1 JFO      -0.136000
     17 C14         91.9410    -5.7660    16.1660 cc         1 JFO       0.442400
     18 N15         91.1120    -5.8320    17.1840 nd         1 JFO      -0.561300
     19 C16         90.6050    -7.0860    17.2240 cd         1 JFO       0.073400
     20 C18         92.6890    -4.5460    15.8250 ca         1 JFO      -0.071900
     21 C19         93.7050    -4.1090    16.6680 ca         1 JFO      -0.083000
     22 C23         92.3560    -3.7570    14.7280 ca         1 JFO       0.065400
     23 CL24        91.0860    -4.2690    13.6720 cl         1 JFO      -0.097400
     24 H1          94.8280    -8.6170    11.5230 ha         1 JFO       0.161000
     25 H2          95.9130    -4.3100    12.0070 h1         1 JFO       0.048700
     26 H3          94.2060    -4.3100    12.5010 h1         1 JFO       0.048700
     27 H4          95.4670    -4.7030    13.6810 h1         1 JFO       0.048700
     28 H5          89.3770    -6.6380    18.8940 hc         1 JFO       0.049700
     29 H6          88.6830    -7.8490    17.8210 hc         1 JFO       0.049700
     30 H7          90.0020    -8.2810    18.9090 hc         1 JFO       0.049700
     31 H8          95.1830    -2.6110    17.0680 ha         1 JFO       0.138000
     32 H9          94.5710    -1.2420    15.0920 ha         1 JFO       0.135000
     33 H10         92.7470    -1.9790    13.5990 ha         1 JFO       0.147000
     34 H11         93.2710   -10.1900    12.6560 ha         1 JFO       0.158000
     35 H12         90.2230   -10.9860    16.0760 hn         1 JFO       0.432800
     36 H13         89.8330    -9.8200    17.2500 hn         1 JFO       0.432800
     37 H14         93.9680    -4.7070    17.5310 ha         1 JFO       0.144000
     38 C17         89.6150    -7.4910    18.2610 c3         1 JFO      -0.022900
@<TRIPOS>BOND
     1     1     9 ar  
     2     1    11 ar  
     3     1    24 1   
     4     2     3 ar  
     5     2    11 ar  
     6     2    12 1   
     7     3    10 ar  
     8     3    16 1   
     9     4    12 2   
    10     4    14 1   
    11     4    15 1   
    12     5    13 1   
    13     5    25 1   
    14     5    26 1   
    15     5    27 1   
    16     6     7 ar  
    17     6    21 ar  
    18     6    31 1   
    19     7     8 ar  
    20     7    32 1   
    21     8    22 ar  
    22     8    33 1   
    23     9    10 ar  
    24     9    13 1   
    25    11    34 1   
    26    14    35 1   
    27    14    36 1   
    28    15    16 1   
    29    15    19 2   
    30    16    17 1   
    31    17    18 2   
    32    17    20 1   
    33    18    19 1   
    34    19    38 1   
    35    20    21 ar  
    36    20    22 ar  
    37    21    37 1   
    38    22    23 1   
    39    28    38 1   
    40    29    38 1   
    41    30    38 1   
@<TRIPOS>SUBSTRUCTURE
     1 JFO         1 TEMP              0 ****  ****    0 ROOT
