@<TRIPOS>MOLECULE
JFP
   21    21     1     0     0
SMALL
bcc


@<TRIPOS>ATOM
      1 C01          4.4750    -0.0600     0.0170 c3         1 JFP      -0.078100
      2 C02          3.2150    -0.9040    -0.0460 c3         1 JFP      -0.150400
      3 C03          1.9480    -0.0910     0.0090 c          1 JFP       0.669100
      4 O04          1.9090     1.1230     0.0740 o          1 JFP      -0.568100
      5 N05          0.7990    -0.8280    -0.0210 ns         1 JFP      -0.543400
      6 C06         -0.4690    -0.3050     0.0160 cc         1 JFP       0.540300
      7 N07         -1.5160    -1.0630    -0.0210 nd         1 JFP      -0.715000
      8 C08         -2.6680    -0.3180     0.0300 cd         1 JFP       0.386600
      9 C09         -2.4720     1.0220     0.1060 cc         1 JFP      -0.252400
     10 S10         -0.7860     1.3930     0.1150 ss         1 JFP      -0.095300
     11 C11         -3.9870    -1.0110    -0.0050 c3         1 JFP      -0.118400
     12 H011         4.5250     0.5190     0.9390 hc         1 JFP       0.046700
     13 H012         5.3530    -0.7050    -0.0170 hc         1 JFP       0.046700
     14 H013         4.5400     0.6320    -0.8210 hc         1 JFP       0.046700
     15 H022         3.1970    -1.5010    -0.9620 hc         1 JFP       0.063200
     16 H021         3.1950    -1.6250     0.7760 hc         1 JFP       0.063200
     17 H051         0.8540    -1.8350    -0.0740 hn         1 JFP       0.338500
     18 H091        -3.2150     1.8010     0.1550 h4         1 JFP       0.176000
     19 H111        -4.0950    -1.5930    -0.9220 hc         1 JFP       0.048033
     20 H112        -4.0880    -1.7020     0.8330 hc         1 JFP       0.048033
     21 H113        -4.8080    -0.2980     0.0420 hc         1 JFP       0.048033
@<TRIPOS>BOND
     1     1     2 1   
     2     1    12 1   
     3     1    13 1   
     4     1    14 1   
     5     2     3 1   
     6     2    15 1   
     7     2    16 1   
     8     3     4 2   
     9     3     5 1   
    10     5     6 1   
    11     5    17 1   
    12     6     7 2   
    13     6    10 1   
    14     7     8 1   
    15     8     9 2   
    16     8    11 1   
    17     9    10 1   
    18     9    18 1   
    19    11    19 1   
    20    11    20 1   
    21    11    21 1   
@<TRIPOS>SUBSTRUCTURE
     1 JFP         1 TEMP              0 ****  ****    0 ROOT
