@<TRIPOS>MOLECULE
JFP
   21    21     1     0     0
SMALL
No Charge or Current Charge


@<TRIPOS>ATOM
      1 C01          4.1820    -0.4090     0.6030 c3         1 JFP      -0.078100
      2 C02          3.2790    -0.7690    -0.5980 c3         1 JFP      -0.150400
      3 C03          2.0100     0.0910    -0.6320 c          1 JFP       0.602100
      4 O04          2.0340     1.2620    -0.9760 o          1 JFP      -0.568100
      5 N05          0.8610    -0.5690    -0.2790 ns         1 JFP      -0.476400
      6 C06         -0.4210    -0.0920    -0.2260 cc         1 JFP       0.540300
      7 N07         -1.3600    -0.9410     0.1480 nd         1 JFP      -0.715000
      8 C08         -2.5940    -0.3100     0.1520 cd         1 JFP       0.321300
      9 C09         -2.5730     1.0120    -0.2190 cc         1 JFP      -0.314000
     10 S10         -0.9580     1.5340    -0.6000 ss         1 JFP       0.049600
     11 C11         -3.8170    -1.0840     0.5470 c3         1 JFP      -0.118400
     12 H011         3.6510    -0.5700     1.5500 hc         1 JFP       0.046700
     13 H012         5.0840    -1.0330     0.6050 hc         1 JFP       0.046700
     14 H013         4.4930     0.6420     0.5560 hc         1 JFP       0.046700
     15 H022         3.8480    -0.5910    -1.5190 hc         1 JFP       0.063200
     16 H021         3.0180    -1.8320    -0.5250 hc         1 JFP       0.063200
     17 H051         0.9790    -1.5370    -0.0230 hn         1 JFP       0.338500
     18 H091        -3.3980     1.7080    -0.2920 h4         1 JFP       0.158000
     19 H111        -3.9720    -1.9380    -0.1220 hc         1 JFP       0.048033
     20 H112        -3.7250    -1.4660     1.5700 hc         1 JFP       0.048033
     21 H113        -4.7140    -0.4560     0.5020 hc         1 JFP       0.048033
@<TRIPOS>BOND
     1     1     2 1   
     2     1    12 1   
     3     1    13 1   
     4     1    14 1   
     5     2     3 1   
     6     2    15 1   
     7     2    16 1   
     8     3     4 2   
     9     3     5 1   
    10     5     6 1   
    11     5    17 1   
    12     6     7 2   
    13     6    10 1   
    14     7     8 1   
    15     8     9 2   
    16     8    11 1   
    17     9    10 1   
    18     9    18 1   
    19    11    19 1   
    20    11    20 1   
    21    11    21 1   
@<TRIPOS>SUBSTRUCTURE
     1 JFP         1 TEMP              0 ****  ****    0 ROOT
