@<TRIPOS>MOLECULE
JFQ
   33    33     1     0     0
SMALL
No Charge or Current Charge


@<TRIPOS>ATOM
      1 C1          -4.4730     0.5170    -0.2960 c3         1 JFQ       0.149800
      2 N1          -5.7590    -0.0010     0.2090 n8         1 JFQ      -0.995200
      3 C2          -3.2810    -0.3060     0.2310 c3         1 JFQ      -0.084400
      4 N2          -0.8240    -0.6000     0.2400 n7         1 JFQ      -0.864400
      5 C3          -1.9300     0.2270    -0.2810 c3         1 JFQ       0.163800
      6 N3           4.8390     0.4230    -0.2290 n8         1 JFQ      -0.997200
      7 C4           0.5420    -0.3090    -0.2400 c6         1 JFQ       0.172500
      8 C5           1.4970    -1.4620     0.1670 c6         1 JFQ      -0.089400
      9 C6           2.9490    -1.1910    -0.3020 c6         1 JFQ      -0.071900
     10 C7           3.4690     0.1620     0.2470 c6         1 JFQ       0.161500
     11 C8           2.5220     1.3220    -0.1560 c6         1 JFQ      -0.071900
     12 C9           1.0690     1.0480     0.3090 c6         1 JFQ      -0.089400
     13 H1          -4.4880     0.4850    -1.3950 h1         1 JFQ       0.025700
     14 H1A         -4.3680     1.5640     0.0200 h1         1 JFQ       0.025700
     15 HN1         -6.5250     0.5360    -0.2150 hn         1 JFQ       0.391500
     16 HN1A        -5.9020    -0.9510    -0.1550 hn         1 JFQ       0.391500
     17 H2          -3.2860    -0.2870     1.3280 hc         1 JFQ       0.052700
     18 H2A         -3.3960    -1.3520    -0.0780 hc         1 JFQ       0.052700
     19 HN2         -0.8320    -0.5510     1.2650 hn         1 JFQ       0.406000
     20 H3          -1.9320     0.2090    -1.3790 h1         1 JFQ       0.026700
     21 H3A         -1.8160     1.2720     0.0390 h1         1 JFQ       0.026700
     22 HN3A         5.4570    -0.3120     0.1340 hn         1 JFQ       0.392500
     23 H4           0.5260    -0.2570    -1.3400 h1         1 JFQ       0.058700
     24 H5           1.4830    -1.5930     1.2580 hc         1 JFQ       0.042200
     25 H5A          1.1430    -2.4080    -0.2660 hc         1 JFQ       0.042200
     26 H6           3.6010    -2.0100     0.0320 hc         1 JFQ       0.047200
     27 H6A          2.9850    -1.1900    -1.4010 hc         1 JFQ       0.047200
     28 H7           3.5150     0.1060     1.3440 h1         1 JFQ       0.012700
     29 H8           2.8750     2.2660     0.2820 hc         1 JFQ       0.047200
     30 H8A          2.5370     1.4570    -1.2460 hc         1 JFQ       0.047200
     31 H9           0.4260     1.8710    -0.0290 hc         1 JFQ       0.042200
     32 H9A          1.0290     1.0490     1.4070 hc         1 JFQ       0.042200
     33 HN3          5.1880     1.2740     0.2260 hn         1 JFQ       0.392500
@<TRIPOS>BOND
     1     1     2 1   
     2     1     3 1   
     3     1    13 1   
     4     1    14 1   
     5     2    15 1   
     6     2    16 1   
     7     3     5 1   
     8     3    17 1   
     9     3    18 1   
    10     4     5 1   
    11     4     7 1   
    12     4    19 1   
    13     5    20 1   
    14     5    21 1   
    15     6    10 1   
    16     6    22 1   
    17     6    33 1   
    18     7     8 1   
    19     7    12 1   
    20     7    23 1   
    21     8     9 1   
    22     8    24 1   
    23     8    25 1   
    24     9    10 1   
    25     9    26 1   
    26     9    27 1   
    27    10    11 1   
    28    10    28 1   
    29    11    12 1   
    30    11    29 1   
    31    11    30 1   
    32    12    31 1   
    33    12    32 1   
@<TRIPOS>SUBSTRUCTURE
     1 JFQ         1 TEMP              0 ****  ****    0 ROOT
