@<TRIPOS>MOLECULE
JFQ
   33    33     1     0     0
SMALL
abcg2


@<TRIPOS>ATOM
      1 C1          -4.3740     0.5310    -0.3190 c3         1 JFQ       0.149800
      2 N1          -5.6590     0.0870     0.2030 n8         1 JFQ      -0.995200
      3 C2          -3.2400    -0.3200     0.2290 c3         1 JFQ      -0.084400
      4 N2          -0.8170    -0.7060     0.2390 n7         1 JFQ      -0.864400
      5 C3          -1.8790     0.1430    -0.2680 c3         1 JFQ       0.163800
      6 N3           4.7460     0.4780    -0.2460 n8         1 JFQ      -0.997200
      7 C4           0.5200    -0.3470    -0.2070 c6         1 JFQ       0.172500
      8 C5           1.5000    -1.4540     0.1710 c6         1 JFQ      -0.089400
      9 C6           2.9200    -1.1430    -0.2870 c6         1 JFQ      -0.071900
     10 C7           3.4100     0.1910     0.2620 c6         1 JFQ       0.161500
     11 C8           2.4470     1.2990    -0.1450 c6         1 JFQ      -0.071900
     12 C9           1.0250     1.0020     0.3160 c6         1 JFQ      -0.089400
     13 H1          -4.3230     0.5280    -1.4180 h1         1 JFQ       0.025700
     14 H1A         -4.2240     1.5700    -0.0110 h1         1 JFQ       0.025700
     15 HN1         -6.3910     0.6880    -0.1530 hn         1 JFQ       0.391500
     16 HN1A        -5.8660    -0.8350    -0.1640 hn         1 JFQ       0.391500
     17 H2          -3.2650    -0.2830     1.3230 hc         1 JFQ       0.052700
     18 H2A         -3.3890    -1.3670    -0.0560 hc         1 JFQ       0.052700
     19 HN2         -0.8380    -0.6920     1.2540 hn         1 JFQ       0.406000
     20 H3          -1.8540     0.0940    -1.3620 h1         1 JFQ       0.026700
     21 H3A         -1.7540     1.2060    -0.0110 h1         1 JFQ       0.026700
     22 HN3A         5.3850    -0.2430     0.0660 hn         1 JFQ       0.392500
     23 H4           0.4830    -0.2920    -1.3040 h1         1 JFQ       0.058700
     24 H5           1.4850    -1.5860     1.2600 hc         1 JFQ       0.042200
     25 H5A          1.1610    -2.4000    -0.2610 hc         1 JFQ       0.042200
     26 H6           3.5970    -1.9460     0.0210 hc         1 JFQ       0.047200
     27 H6A          2.9580    -1.1050    -1.3810 hc         1 JFQ       0.047200
     28 H7           3.3890     0.1240     1.3630 h1         1 JFQ       0.012700
     29 H8           2.7810     2.2560     0.2670 hc         1 JFQ       0.047200
     30 H8A          2.4720     1.4040    -1.2360 hc         1 JFQ       0.047200
     31 H9           0.3590     1.8080    -0.0000 hc         1 JFQ       0.042200
     32 H9A          0.9910     0.9820     1.4130 hc         1 JFQ       0.042200
     33 HN3          5.0850     1.3370     0.1720 hn         1 JFQ       0.392500
@<TRIPOS>BOND
     1     1     2 1   
     2     1     3 1   
     3     1    13 1   
     4     1    14 1   
     5     2    15 1   
     6     2    16 1   
     7     3     5 1   
     8     3    17 1   
     9     3    18 1   
    10     4     5 1   
    11     4     7 1   
    12     4    19 1   
    13     5    20 1   
    14     5    21 1   
    15     6    10 1   
    16     6    22 1   
    17     6    33 1   
    18     7     8 1   
    19     7    12 1   
    20     7    23 1   
    21     8     9 1   
    22     8    24 1   
    23     8    25 1   
    24     9    10 1   
    25     9    26 1   
    26     9    27 1   
    27    10    11 1   
    28    10    28 1   
    29    11    12 1   
    30    11    29 1   
    31    11    30 1   
    32    12    31 1   
    33    12    32 1   
@<TRIPOS>SUBSTRUCTURE
     1 JFQ         1 TEMP              0 ****  ****    0 ROOT
