@<TRIPOS>MOLECULE
JFR
   75    80     1     0     0
SMALL
abcg2


@<TRIPOS>ATOM
      1 CBG        -71.1300    30.3580     5.3250 c5         1 JFR      -0.068900
      2 CBH        -71.9230    29.1020     4.9790 c5         1 JFR      -0.078900
      3 CBI        -72.3600    28.5960     6.3490 c5         1 JFR      -0.078900
      4 CBJ        -71.1120    28.7810     7.2170 c5         1 JFR      -0.068900
      5 CBF        -70.3510    29.9930     6.6160 c5         1 JFR      -0.094000
      6 CBD        -68.9230    29.6800     6.3280 cc         1 JFR       0.420800
      7 NBE        -67.9040    30.4780     6.7100 na         1 JFR      -0.284500
      8 NBC        -68.4730    28.6430     5.6570 nd         1 JFR      -0.677000
      9 CBB        -67.1210    28.7790     5.6080 cd         1 JFR       0.270900
     10 CAK        -66.7340    29.9220     6.2650 cc         1 JFR      -0.255500
     11 CAH        -65.4390    30.4920     6.4980 cc         1 JFR       0.207500
     12 CAI        -65.0130    31.6920     6.9690 cd         1 JFR      -0.115000
     13 OAG        -64.3750    29.6910     6.1950 os         1 JFR      -0.208000
     14 CAA        -63.2640    30.3780     6.4810 cc         1 JFR       0.297800
     15 CAB        -63.5880    31.6250     6.9580 cd         1 JFR      -0.255600
     16 CAC        -62.5730    32.5760     7.3020 c          1 JFR       0.596600
     17 OBK        -62.7650    33.7080     7.7290 o          1 JFR      -0.547000
     18 NAD        -61.2830    32.0940     7.0970 n          1 JFR      -0.284000
     19 CBL        -60.1860    32.9980     7.4160 c3         1 JFR       0.079300
     20 CAE        -60.9990    30.8450     6.6290 cd         1 JFR      -0.016400
     21 CAF        -61.9440    29.9220     6.3000 cc         1 JFR      -0.204000
     22 CAJ        -61.5880    28.5930     5.7690 ca         1 JFR      -0.068800
     23 CAL        -60.8790    28.4830     4.5760 ca         1 JFR      -0.057000
     24 CAM        -60.4920    27.2540     4.0560 ca         1 JFR      -0.145300
     25 CAQ        -59.7210    27.1460     2.7420 c3         1 JFR       0.237300
     26 CBM        -58.4340    26.3440     2.9440 c3         1 JFR      -0.099600
     27 CBO        -60.6020    26.4800     1.6880 c3         1 JFR      -0.099600
     28 OBN        -59.4080    28.4280     2.2330 oh         1 JFR      -0.655000
     29 CAN        -60.8580    26.1130     4.7650 ca         1 JFR      -0.062000
     30 CAO        -61.5680    26.1900     5.9520 ca         1 JFR      -0.187000
     31 CAP        -61.9300    27.4310     6.4620 ca         1 JFR       0.159100
     32 OAR        -62.6040    27.5940     7.6320 os         1 JFR      -0.239200
     33 CAS        -62.8450    26.4910     8.4200 ca         1 JFR       0.063100
     34 CAT        -61.8760    26.1050     9.3430 ca         1 JFR      -0.042800
     35 CAZ        -60.5800    26.8490     9.4600 c3         1 JFR      -0.050800
     36 CAU        -62.1470    25.0090    10.1590 ca         1 JFR      -0.155500
     37 CAV        -63.3490    24.3480    10.0230 ca         1 JFR       0.179000
     38 FAY        -63.5980    23.2830    10.8050 f          1 JFR      -0.177000
     39 CAW        -64.3100    24.7370     9.1130 ca         1 JFR      -0.155500
     40 CAX        -64.0630    25.8300     8.2890 ca         1 JFR      -0.042800
     41 CBA        -65.0890    26.2870     7.2980 c3         1 JFR      -0.050800
     42 H1         -70.4790    30.6990     4.5200 hc         1 JFR       0.049700
     43 H2         -71.8210    31.1760     5.5440 hc         1 JFR       0.049700
     44 H3         -72.7580    29.3010     4.3050 hc         1 JFR       0.047450
     45 H4         -71.2770    28.3660     4.4940 hc         1 JFR       0.047450
     46 H5         -73.1810    29.2120     6.7230 hc         1 JFR       0.047450
     47 H6         -72.7090    27.5620     6.3380 hc         1 JFR       0.047450
     48 H7         -70.4900    27.8870     7.1660 hc         1 JFR       0.049700
     49 H8         -71.3520    28.9410     8.2690 hc         1 JFR       0.049700
     50 H9         -70.3760    30.8380     7.3060 hc         1 JFR       0.046700
     51 H10        -67.9960    31.3250     7.2520 hn         1 JFR       0.355000
     52 H12        -66.4920    28.0610     5.1060 h4         1 JFR       0.045100
     53 H13        -65.6320    32.5210     7.2730 ha         1 JFR       0.150000
     54 H14        -60.2140    33.2800     8.4670 h1         1 JFR       0.053700
     55 H15        -59.2450    32.4980     7.2130 h1         1 JFR       0.053700
     56 H16        -60.2420    33.9000     6.8100 h1         1 JFR       0.053700
     57 H17        -59.9470    30.6120     6.5350 h4         1 JFR       0.203000
     58 H18        -60.6410    29.3950     4.0460 ha         1 JFR       0.126000
     59 H19        -57.7890    26.8200     3.6860 hc         1 JFR       0.044700
     60 H20        -58.6330    25.3290     3.2850 hc         1 JFR       0.044700
     61 H21        -57.8830    26.2760     2.0040 hc         1 JFR       0.044700
     62 H22        -60.9030    25.4830     2.0100 hc         1 JFR       0.044700
     63 H23        -61.5080    27.0610     1.5080 hc         1 JFR       0.044700
     64 H24        -60.0620    26.3790     0.7450 hc         1 JFR       0.044700
     65 H25        -58.7080    28.8120     2.7730 ho         1 JFR       0.440000
     66 H26        -60.5950    25.1290     4.3950 ha         1 JFR       0.113000
     67 H27        -61.8250    25.2780     6.4750 ha         1 JFR       0.130000
     68 H28        -60.7420    27.9150     9.6200 hc         1 JFR       0.052700
     69 H29        -59.9920    26.4680    10.2930 hc         1 JFR       0.052700
     70 H30        -59.9760    26.7480     8.5560 hc         1 JFR       0.052700
     71 H31        -61.4190    24.6790    10.8900 ha         1 JFR       0.135500
     72 H32        -65.2450    24.1960     9.0400 ha         1 JFR       0.135500
     73 H33        -64.6960    26.3040     6.2800 hc         1 JFR       0.052700
     74 H34        -65.9560    25.6290     7.3080 hc         1 JFR       0.052700
     75 H35        -65.4350    27.2960     7.5240 hc         1 JFR       0.052700
@<TRIPOS>BOND
     1     1     2 1   
     2     1     5 1   
     3     1    42 1   
     4     1    43 1   
     5     2     3 1   
     6     2    44 1   
     7     2    45 1   
     8     3     4 1   
     9     3    46 1   
    10     3    47 1   
    11     4     5 1   
    12     4    48 1   
    13     4    49 1   
    14     5     6 1   
    15     5    50 1   
    16     6     7 1   
    17     6     8 2   
    18     7    10 1   
    19     7    51 1   
    20     8     9 1   
    21     9    10 2   
    22     9    52 1   
    23    10    11 1   
    24    11    12 2   
    25    11    13 1   
    26    12    15 1   
    27    12    53 1   
    28    13    14 1   
    29    14    15 2   
    30    14    21 1   
    31    15    16 1   
    32    16    17 2   
    33    16    18 1   
    34    18    19 1   
    35    18    20 1   
    36    19    54 1   
    37    19    55 1   
    38    19    56 1   
    39    20    21 2   
    40    20    57 1   
    41    21    22 1   
    42    22    23 ar  
    43    22    31 ar  
    44    23    24 ar  
    45    23    58 1   
    46    24    25 1   
    47    24    29 ar  
    48    25    26 1   
    49    25    27 1   
    50    25    28 1   
    51    26    59 1   
    52    26    60 1   
    53    26    61 1   
    54    27    62 1   
    55    27    63 1   
    56    27    64 1   
    57    28    65 1   
    58    29    30 ar  
    59    29    66 1   
    60    30    31 ar  
    61    30    67 1   
    62    31    32 1   
    63    32    33 1   
    64    33    34 ar  
    65    33    40 ar  
    66    34    35 1   
    67    34    36 ar  
    68    35    68 1   
    69    35    69 1   
    70    35    70 1   
    71    36    37 ar  
    72    36    71 1   
    73    37    38 1   
    74    37    39 ar  
    75    39    40 ar  
    76    39    72 1   
    77    40    41 1   
    78    41    73 1   
    79    41    74 1   
    80    41    75 1   
@<TRIPOS>SUBSTRUCTURE
     1 JFR         1 TEMP              0 ****  ****    0 ROOT
