@<TRIPOS>MOLECULE
JFR
   75    80     1     0     0
SMALL
No Charge or Current Charge


@<TRIPOS>ATOM
      1 CBG        -71.4810    29.8120     5.2720 c5         1 JFR      -0.068900
      2 CBH        -72.8970    30.0070     5.8840 c5         1 JFR      -0.078900
      3 CBI        -72.7960    29.4100     7.3270 c5         1 JFR      -0.078900
      4 CBJ        -71.3220    28.9270     7.4590 c5         1 JFR      -0.068900
      5 CBF        -70.5770    29.9190     6.5270 c5         1 JFR      -0.094000
      6 CBD        -69.1440    29.4990     6.2560 cc         1 JFR       0.420800
      7 NBE        -68.0890    30.3280     6.5500 na         1 JFR      -0.284500
      8 NBC        -68.7150    28.3540     5.7330 nd         1 JFR      -0.677000
      9 CBB        -67.3360    28.4410     5.6880 cd         1 JFR       0.270900
     10 CAK        -66.9440    29.6510     6.1910 cc         1 JFR      -0.255500
     11 CAH        -65.5970    30.1210     6.3140 cc         1 JFR       0.207500
     12 CAI        -65.1970    31.3430     6.7910 cd         1 JFR      -0.115000
     13 OAG        -64.5170    29.3620     5.9300 os         1 JFR      -0.208000
     14 CAA        -63.4200    30.1410     6.2090 cc         1 JFR       0.297800
     15 CAB        -63.7850    31.3510     6.6990 cd         1 JFR      -0.255600
     16 CAC        -62.7920    32.3860     7.0220 c          1 JFR       0.596600
     17 OBK        -63.1040    33.4810     7.4710 o          1 JFR      -0.547000
     18 NAD        -61.4470    32.0090     6.7650 n          1 JFR      -0.284000
     19 CBL        -60.3860    32.9940     7.0730 c3         1 JFR       0.079300
     20 CAE        -61.1040    30.7480     6.2510 cd         1 JFR      -0.016400
     21 CAF        -62.0580    29.7930     5.9330 cc         1 JFR      -0.204000
     22 CAJ        -61.5460    28.4720     5.5190 ca         1 JFR      -0.068800
     23 CAL        -60.4510    28.4000     4.6290 ca         1 JFR      -0.057000
     24 CAM        -59.9180    27.1650     4.1930 ca         1 JFR      -0.145300
     25 CAQ        -58.7380    27.1640     3.1970 c3         1 JFR       0.237300
     26 CBM        -58.0740    25.7790     3.0000 c3         1 JFR      -0.099600
     27 CBO        -59.1930    27.7260     1.8310 c3         1 JFR      -0.099600
     28 OBN        -57.7250    28.0310     3.7050 oh         1 JFR      -0.655000
     29 CAN        -60.5080    25.9740     4.6730 ca         1 JFR      -0.062000
     30 CAO        -61.5800    26.0260     5.5750 ca         1 JFR      -0.187000
     31 CAP        -62.0960    27.2610     6.0060 ca         1 JFR       0.159100
     32 OAR        -63.0750    27.2810     6.9760 os         1 JFR      -0.239200
     33 CAS        -63.0810    26.3970     8.0330 ca         1 JFR       0.063100
     34 CAT        -62.0360    26.4170     8.9910 ca         1 JFR      -0.042800
     35 CAZ        -60.8910    27.4210     8.9040 c3         1 JFR      -0.050800
     36 CAU        -62.0660    25.4960    10.0570 ca         1 JFR      -0.155500
     37 CAV        -63.1230    24.5820    10.1720 ca         1 JFR       0.179000
     38 FAY        -63.1420    23.7060    11.2000 f          1 JFR      -0.177000
     39 CAW        -64.1650    24.5760     9.2340 ca         1 JFR      -0.155500
     40 CAX        -64.1520    25.4840     8.1580 ca         1 JFR      -0.042800
     41 CBA        -65.2920    25.4780     7.1470 c3         1 JFR      -0.050800
     42 H1         -71.3920    28.8330     4.7840 hc         1 JFR       0.049700
     43 H2         -71.2440    30.5720     4.5180 hc         1 JFR       0.049700
     44 H3         -73.1640    31.0700     5.9250 hc         1 JFR       0.047450
     45 H4         -73.6680    29.5110     5.2840 hc         1 JFR       0.047450
     46 H5         -73.0270    30.1740     8.0780 hc         1 JFR       0.047450
     47 H6         -73.5040    28.5880     7.4850 hc         1 JFR       0.047450
     48 H7         -71.2140    27.8890     7.1200 hc         1 JFR       0.049700
     49 H8         -70.9600    28.9690     8.4930 hc         1 JFR       0.049700
     50 H9         -70.6040    30.9350     6.9400 hc         1 JFR       0.046700
     51 H10        -68.1640    31.2530     6.9550 hn         1 JFR       0.355000
     52 H12        -66.7180    27.6400     5.2980 h4         1 JFR       0.045100
     53 H13        -65.8350    32.1440     7.1470 ha         1 JFR       0.150000
     54 H14        -60.3890    33.2150     8.1480 h1         1 JFR       0.053700
     55 H15        -59.3980    32.6050     6.7960 h1         1 JFR       0.053700
     56 H16        -60.5680    33.9210     6.5150 h1         1 JFR       0.053700
     57 H17        -60.0320    30.5940     6.1610 h4         1 JFR       0.203000
     58 H18        -60.0220    29.3210     4.2410 ha         1 JFR       0.126000
     59 H19        -57.7550    25.3530     3.9590 hc         1 JFR       0.044700
     60 H20        -58.7650    25.0760     2.5190 hc         1 JFR       0.044700
     61 H21        -57.1880    25.8600     2.3580 hc         1 JFR       0.044700
     62 H22        -59.9900    27.1030     1.4070 hc         1 JFR       0.044700
     63 H23        -59.5780    28.7480     1.9280 hc         1 JFR       0.044700
     64 H24        -58.3600    27.7460     1.1180 hc         1 JFR       0.044700
     65 H25        -57.5720    27.7560     4.6330 ho         1 JFR       0.440000
     66 H26        -60.1480    24.9960     4.3640 ha         1 JFR       0.113000
     67 H27        -62.0040    25.0980     5.9490 ha         1 JFR       0.130000
     68 H28        -61.2580    28.4240     8.6550 hc         1 JFR       0.052700
     69 H29        -60.3500    27.5020     9.8550 hc         1 JFR       0.052700
     70 H30        -60.1660    27.1260     8.1360 hc         1 JFR       0.052700
     71 H31        -61.2740    25.4890    10.8010 ha         1 JFR       0.135500
     72 H32        -64.9790    23.8650     9.3460 ha         1 JFR       0.135500
     73 H33        -64.9130    25.4850     6.1180 hc         1 JFR       0.052700
     74 H34        -65.9280    24.5910     7.2560 hc         1 JFR       0.052700
     75 H35        -65.9280    26.3610     7.2780 hc         1 JFR       0.052700
@<TRIPOS>BOND
     1     1     2 1   
     2     1     5 1   
     3     1    42 1   
     4     1    43 1   
     5     2     3 1   
     6     2    44 1   
     7     2    45 1   
     8     3     4 1   
     9     3    46 1   
    10     3    47 1   
    11     4     5 1   
    12     4    48 1   
    13     4    49 1   
    14     5     6 1   
    15     5    50 1   
    16     6     7 1   
    17     6     8 2   
    18     7    10 1   
    19     7    51 1   
    20     8     9 1   
    21     9    10 2   
    22     9    52 1   
    23    10    11 1   
    24    11    12 2   
    25    11    13 1   
    26    12    15 1   
    27    12    53 1   
    28    13    14 1   
    29    14    15 2   
    30    14    21 1   
    31    15    16 1   
    32    16    17 2   
    33    16    18 1   
    34    18    19 1   
    35    18    20 1   
    36    19    54 1   
    37    19    55 1   
    38    19    56 1   
    39    20    21 2   
    40    20    57 1   
    41    21    22 1   
    42    22    23 ar  
    43    22    31 ar  
    44    23    24 ar  
    45    23    58 1   
    46    24    25 1   
    47    24    29 ar  
    48    25    26 1   
    49    25    27 1   
    50    25    28 1   
    51    26    59 1   
    52    26    60 1   
    53    26    61 1   
    54    27    62 1   
    55    27    63 1   
    56    27    64 1   
    57    28    65 1   
    58    29    30 ar  
    59    29    66 1   
    60    30    31 ar  
    61    30    67 1   
    62    31    32 1   
    63    32    33 1   
    64    33    34 ar  
    65    33    40 ar  
    66    34    35 1   
    67    34    36 ar  
    68    35    68 1   
    69    35    69 1   
    70    35    70 1   
    71    36    37 ar  
    72    36    71 1   
    73    37    38 1   
    74    37    39 ar  
    75    39    40 ar  
    76    39    72 1   
    77    40    41 1   
    78    41    73 1   
    79    41    74 1   
    80    41    75 1   
@<TRIPOS>SUBSTRUCTURE
     1 JFR         1 TEMP              0 ****  ****    0 ROOT
