@<TRIPOS>MOLECULE
JFS
   29    31     1     0     0
SMALL
abcg2


@<TRIPOS>ATOM
      1 C10          0.5760    -0.3530     0.0240 ca         1 JFS       0.014800
      2 C13          3.2760     0.3150     0.2270 ca         1 JFS      -0.087300
      3 C15          1.0870     0.7000    -0.7260 ca         1 JFS      -0.119500
      4 C01         -4.4190     1.1790     0.1280 ca         1 JFS      -0.134000
      5 C02         -3.2980     2.0080     0.2840 ca         1 JFS      -0.096000
      6 C03         -2.0100     1.5050     0.2320 ca         1 JFS      -0.110000
      7 C04         -1.8820     0.1380     0.0130 ca         1 JFS      -0.072200
      8 C05         -2.9930    -0.7080    -0.1340 ca         1 JFS       0.066400
      9 C06         -4.2830    -0.1810    -0.0800 ca         1 JFS      -0.048000
     10 N07         -2.5780    -2.0090    -0.3080 nc         1 JFS      -0.570100
     11 C08         -1.2830    -1.9560    -0.2640 cd         1 JFS       0.428700
     12 N09         -0.7890    -0.6980    -0.0760 na         1 JFS      -0.094400
     13 C11          1.4060    -1.0750     0.8720 ca         1 JFS      -0.119500
     14 C12          2.7500    -0.7460     0.9560 ca         1 JFS      -0.075000
     15 C14          2.4280     1.0300    -0.6140 ca         1 JFS      -0.075000
     16 C16          4.7380     0.6480     0.2970 c3         1 JFS       0.207900
     17 O17          5.3850    -0.0020    -0.7790 oh         1 JFS      -0.653000
     18 H151         0.4480     1.2490    -1.4050 ha         1 JFS       0.129000
     19 H021        -3.4430     3.0680     0.4490 ha         1 JFS       0.112000
     20 H031        -1.1530     2.1530     0.3580 ha         1 JFS       0.121000
     21 H061        -5.1470    -0.8230    -0.1950 ha         1 JFS       0.129000
     22 H081        -0.6180    -2.8010    -0.3770 h5         1 JFS       0.065800
     23 H111         1.0040    -1.8820     1.4710 ha         1 JFS       0.129000
     24 H121         3.3920    -1.3130     1.6190 ha         1 JFS       0.120500
     25 H141         2.8170     1.8570    -1.1960 ha         1 JFS       0.120500
     26 H162         4.8670     1.7360     0.2430 h1         1 JFS       0.026700
     27 H161         5.1410     0.3250     1.2640 h1         1 JFS       0.026700
     28 H171         6.3200     0.2210    -0.7380 ho         1 JFS       0.443000
     29 H011        -5.4080     1.6160     0.1760 ha         1 JFS       0.114000
@<TRIPOS>BOND
     1     1     3 ar  
     2     1    12 1   
     3     1    13 ar  
     4     2    14 ar  
     5     2    15 ar  
     6     2    16 1   
     7     3    15 ar  
     8     3    18 1   
     9     4     5 ar  
    10     4     9 ar  
    11     4    29 1   
    12     5     6 ar  
    13     5    19 1   
    14     6     7 ar  
    15     6    20 1   
    16     7     8 ar  
    17     7    12 1   
    18     8     9 ar  
    19     8    10 1   
    20     9    21 1   
    21    10    11 2   
    22    11    12 1   
    23    11    22 1   
    24    13    14 ar  
    25    13    23 1   
    26    14    24 1   
    27    15    25 1   
    28    16    17 1   
    29    16    26 1   
    30    16    27 1   
    31    17    28 1   
@<TRIPOS>SUBSTRUCTURE
     1 JFS         1 TEMP              0 ****  ****    0 ROOT
