@<TRIPOS>MOLECULE
JFS
   29    31     1     0     0
SMALL
No Charge or Current Charge


@<TRIPOS>ATOM
      1 C10          0.4950    -0.4340     0.3670 ca         1 JFS       0.014800
      2 C13          3.2140     0.2990     0.1210 ca         1 JFS      -0.087300
      3 C15          0.9050     0.4410    -0.6580 ca         1 JFS      -0.119500
      4 C01         -4.3150     1.3190    -0.1480 ca         1 JFS      -0.134000
      5 C02         -3.3220     1.9680     0.6230 ca         1 JFS      -0.096000
      6 C03         -2.0980     1.3210     0.8880 ca         1 JFS      -0.110000
      7 C04         -1.9100     0.0360     0.3610 ca         1 JFS      -0.072200
      8 C05         -2.8610    -0.6030    -0.3860 ca         1 JFS       0.066400
      9 C06         -4.0880     0.0220    -0.6590 ca         1 JFS      -0.048000
     10 N07         -2.4320    -1.8520    -0.8070 nc         1 JFS      -0.570100
     11 C08         -1.1800    -1.9150    -0.2960 cd         1 JFS       0.428700
     12 N09         -0.8410    -0.8040     0.4990 na         1 JFS      -0.094400
     13 C11          1.4500    -0.9400     1.2670 ca         1 JFS      -0.119500
     14 C12          2.8030    -0.5760     1.1450 ca         1 JFS      -0.075000
     15 C14          2.2570     0.8050    -0.7810 ca         1 JFS      -0.075000
     16 C16          4.6790     0.6970    -0.0090 c3         1 JFS       0.207900
     17 O17          5.3700    -0.2240    -0.8590 oh         1 JFS      -0.653000
     18 H151         0.1770     0.8390    -1.3620 ha         1 JFS       0.129000
     19 H021        -3.5040     2.9670     1.0150 ha         1 JFS       0.112000
     20 H031        -1.3270     1.8020     1.4860 ha         1 JFS       0.121000
     21 H061        -4.8440    -0.4820    -1.2560 ha         1 JFS       0.129000
     22 H081        -0.4660    -2.7100    -0.4790 h5         1 JFS       0.065800
     23 H111         1.1450    -1.6150     2.0640 ha         1 JFS       0.129000
     24 H121         3.5330    -0.9750     1.8460 ha         1 JFS       0.120500
     25 H141         2.5630     1.4800    -1.5780 ha         1 JFS       0.120500
     26 H162         4.7430     1.7140    -0.4180 h1         1 JFS       0.026700
     27 H161         5.1390     0.7150     0.9880 h1         1 JFS       0.026700
     28 H171         6.3030     0.0810    -0.9050 ho         1 JFS       0.443000
     29 H011        -5.2580     1.8210    -0.3500 ha         1 JFS       0.114000
@<TRIPOS>BOND
     1     1     3 ar  
     2     1    12 1   
     3     1    13 ar  
     4     2    14 ar  
     5     2    15 ar  
     6     2    16 1   
     7     3    15 ar  
     8     3    18 1   
     9     4     5 ar  
    10     4     9 ar  
    11     4    29 1   
    12     5     6 ar  
    13     5    19 1   
    14     6     7 ar  
    15     6    20 1   
    16     7     8 ar  
    17     7    12 1   
    18     8     9 ar  
    19     8    10 1   
    20     9    21 1   
    21    10    11 2   
    22    11    12 1   
    23    11    22 1   
    24    13    14 ar  
    25    13    23 1   
    26    14    24 1   
    27    15    25 1   
    28    16    17 1   
    29    16    26 1   
    30    16    27 1   
    31    17    28 1   
@<TRIPOS>SUBSTRUCTURE
     1 JFS         1 TEMP              0 ****  ****    0 ROOT
