@<TRIPOS>MOLECULE
JFT
   38    41     1     0     0
SMALL
No Charge or Current Charge


@<TRIPOS>ATOM
      1 C13          0.1060    -0.1090     0.8030 ca         1 JFT      -0.107000
      2 C15          2.5560    -0.0000     0.3890 cc         1 JFT      -0.005000
      3 C20          3.4960     0.0530    -0.6100 cd         1 JFT      -0.197000
      4 C21          3.4840    -0.6030    -1.8670 ch         1 JFT       0.371000
      5 C24          0.0070    -2.7750    -0.1610 ca         1 JFT      -0.050000
      6 C02         -2.5010    -2.5490     0.3760 cc         1 JFT       0.037800
      7 C03         -3.2470    -1.5010     0.8940 cd         1 JFT      -0.143100
      8 C06         -2.5270     2.0520     0.6280 ca         1 JFT      -0.177300
      9 C07         -2.7330     1.8460    -0.7510 ca         1 JFT      -0.049000
     10 C08         -2.5520     2.9320    -1.6210 ca         1 JFT      -0.160000
     11 C09         -2.1770     4.1790    -1.0940 ca         1 JFT       0.349900
     12 C11         -2.1570     3.3390     1.0660 ca         1 JFT       0.350900
     13 C12         -1.1000    -0.8270     0.7600 ca         1 JFT      -0.043200
     14 C14          1.2880    -0.7350     0.3420 ca         1 JFT      -0.027000
     15 C18          4.4660     0.9450    -0.1200 cd         1 JFT       0.526900
     16 C23          1.2300    -2.0740    -0.1290 ca         1 JFT      -0.103000
     17 C25         -1.1390    -2.1110     0.2910 ca         1 JFT      -0.076800
     18 N04         -2.3730    -0.4150     1.1390 na         1 JFT      -0.082700
     19 N10         -1.9820     4.3880     0.2290 nb         1 JFT      -0.660000
     20 N16          3.0010     0.8870     1.3660 na         1 JFT       0.010800
     21 N17          4.2230     1.4700     1.0500 nc         1 JFT      -0.581800
     22 N19          5.5860     1.3130    -0.7670 nv         1 JFT      -1.017900
     23 N22          3.4920    -1.1250    -2.9110 n1         1 JFT      -0.480000
     24 Cl1         -3.0830    -4.1120    -0.1020 cl         1 JFT      -0.150000
     25 H1           0.1280     0.9140     1.1690 ha         1 JFT       0.116000
     26 H2          -0.0430    -3.8000    -0.5210 ha         1 JFT       0.132000
     27 H3          -4.3110    -1.4490     1.0970 h4         1 JFT       0.225000
     28 H4          -2.0640     1.1240     2.5220 h1         1 JFT       0.067700
     29 H5          -3.7400     0.9240     1.9970 h1         1 JFT       0.067700
     30 H6          -3.0270     0.8740    -1.1430 ha         1 JFT       0.123000
     31 H7          -2.6980     2.8170    -2.6910 ha         1 JFT       0.130000
     32 H8          -2.0300     5.0370    -1.7490 h4         1 JFT       0.024100
     33 H9          -1.9930     3.5390     2.1240 h4         1 JFT       0.015100
     34 H10          2.1340    -2.5810    -0.4550 ha         1 JFT       0.131000
     35 H11          2.5190     1.0990     2.2390 hn         1 JFT       0.377000
     36 H12          6.0770     2.1230    -0.4050 hn         1 JFT       0.462000
     37 H13          5.6490     1.1460    -1.7660 hn         1 JFT       0.462000
     38 C05         -2.6990     0.9290     1.6490 c3         1 JFT       0.131900
@<TRIPOS>BOND
     1     1    13 ar  
     2     1    14 ar  
     3     1    25 1   
     4     2     3 2   
     5     2    14 1   
     6     2    20 1   
     7     3     4 1   
     8     3    15 1   
     9     4    23 3   
    10     5    16 ar  
    11     5    17 ar  
    12     5    26 1   
    13     6     7 2   
    14     6    17 1   
    15     6    24 1   
    16     7    18 1   
    17     7    27 1   
    18     8     9 ar  
    19     8    12 ar  
    20     8    38 1   
    21     9    10 ar  
    22     9    30 1   
    23    10    11 ar  
    24    10    31 1   
    25    11    19 ar  
    26    11    32 1   
    27    12    19 ar  
    28    12    33 1   
    29    13    17 ar  
    30    13    18 1   
    31    14    16 ar  
    32    15    21 2   
    33    15    22 1   
    34    16    34 1   
    35    18    38 1   
    36    20    21 1   
    37    20    35 1   
    38    22    36 1   
    39    22    37 1   
    40    28    38 1   
    41    29    38 1   
@<TRIPOS>SUBSTRUCTURE
     1 JFT         1 TEMP              0 ****  ****    0 ROOT
