@<TRIPOS>MOLECULE
JFT
   38    41     1     0     0
SMALL
abcg2


@<TRIPOS>ATOM
      1 C13          0.1920    -0.0360     0.7910 ca         1 JFT      -0.107000
      2 C15          2.6140    -0.0020     0.3570 cc         1 JFT      -0.005000
      3 C20          3.6880     0.0140    -0.5340 cd         1 JFT      -0.197000
      4 C21          3.7850    -0.6080    -1.7880 ch         1 JFT       0.371000
      5 C24          0.0380    -2.6430    -0.3140 ca         1 JFT      -0.050000
      6 C02         -2.4770    -2.3850     0.2820 cc         1 JFT       0.037800
      7 C03         -3.1460    -1.3500     0.8660 cd         1 JFT      -0.143100
      8 C06         -2.6050     2.0190     0.5940 ca         1 JFT      -0.177300
      9 C07         -3.4200     1.9280    -0.5300 ca         1 JFT      -0.049000
     10 C08         -3.3610     2.9270    -1.4860 ca         1 JFT      -0.160000
     11 C09         -2.4860     3.9870    -1.2830 ca         1 JFT       0.349900
     12 C11         -1.7690     3.1230     0.6930 ca         1 JFT       0.350900
     13 C12         -1.0160    -0.7210     0.7300 ca         1 JFT      -0.043200
     14 C14          1.3220    -0.6750     0.2980 ca         1 JFT      -0.027000
     15 C18          4.6590     0.8610     0.0710 cd         1 JFT       0.526900
     16 C23          1.2380    -1.9710    -0.2520 ca         1 JFT      -0.103000
     17 C25         -1.1090    -2.0170     0.1790 ca         1 JFT      -0.076800
     18 N04         -2.2630    -0.3440     1.1440 na         1 JFT      -0.082700
     19 N10         -1.7050     4.0890    -0.2170 nb         1 JFT      -0.660000
     20 N16          2.9900     0.7820     1.3640 na         1 JFT       0.010800
     21 N17          4.2150     1.3170     1.2210 nc         1 JFT      -0.581800
     22 N19          5.9080     1.1390    -0.4050 nv         1 JFT      -1.017900
     23 N22          3.8960    -1.1020    -2.8260 n1         1 JFT      -0.480000
     24 CL1         -3.1500    -3.8740    -0.2300 cl         1 JFT      -0.150000
     25 H1           0.2520     0.9680     1.1900 ha         1 JFT       0.116000
     26 H2          -0.0110    -3.6410    -0.7310 ha         1 JFT       0.132000
     27 H3          -4.1920    -1.2560     1.1130 h4         1 JFT       0.225000
     28 H4          -1.9430     1.2240     2.4760 h1         1 JFT       0.067700
     29 H5          -3.6150     0.8730     2.1030 h1         1 JFT       0.067700
     30 H6          -4.0960     1.0910    -0.6580 ha         1 JFT       0.123000
     31 H7          -3.9790     2.8920    -2.3720 ha         1 JFT       0.130000
     32 H8          -2.4170     4.7840    -2.0150 h4         1 JFT       0.024100
     33 H9          -1.1180     3.2310     1.5560 h4         1 JFT       0.015100
     34 H10          2.1350    -2.4600    -0.6060 ha         1 JFT       0.131000
     35 H11          2.4790     0.9520     2.2160 hn         1 JFT       0.377000
     36 H12          6.3500     1.9420     0.0160 hn         1 JFT       0.462000
     37 H13          6.0040     1.1440    -1.4080 hn         1 JFT       0.462000
     38 C05         -2.6210     0.9590     1.6630 c3         1 JFT       0.131900
@<TRIPOS>BOND
     1     1    13 ar  
     2     1    14 ar  
     3     1    25 1   
     4     2     3 2   
     5     2    14 1   
     6     2    20 1   
     7     3     4 1   
     8     3    15 1   
     9     4    23 3   
    10     5    16 ar  
    11     5    17 ar  
    12     5    26 1   
    13     6     7 2   
    14     6    17 1   
    15     6    24 1   
    16     7    18 1   
    17     7    27 1   
    18     8     9 ar  
    19     8    12 ar  
    20     8    38 1   
    21     9    10 ar  
    22     9    30 1   
    23    10    11 ar  
    24    10    31 1   
    25    11    19 ar  
    26    11    32 1   
    27    12    19 ar  
    28    12    33 1   
    29    13    17 ar  
    30    13    18 1   
    31    14    16 ar  
    32    15    21 2   
    33    15    22 1   
    34    16    34 1   
    35    18    38 1   
    36    20    21 1   
    37    20    35 1   
    38    22    36 1   
    39    22    37 1   
    40    28    38 1   
    41    29    38 1   
@<TRIPOS>SUBSTRUCTURE
     1 JFT         1 TEMP              0 ****  ****    0 ROOT
