@<TRIPOS>MOLECULE
JFV
   31    32     1     0     0
SMALL
No Charge or Current Charge


@<TRIPOS>ATOM
      1 C10          0.6460     0.8480     0.3820 ca         1 JFV       0.195100
      2 C13         -2.3860    -0.7740     1.5330 ca         1 JFV      -0.070500
      3 C15         -4.2020    -0.6360    -0.0850 ca         1 JFV       0.293000
      4 C17         -1.9460     0.0230    -0.7270 ca         1 JFV      -0.070500
      5 C01          4.4990    -2.2100     0.0500 c3         1 JFV       0.153900
      6 C03          2.4920    -0.8680    -0.0150 c          1 JFV       0.611700
      7 O04          1.7880    -1.8690    -0.0260 o          1 JFV      -0.467000
      8 C05          1.9550     0.5420    -0.0590 ca         1 JFV      -0.175600
      9 C06          2.7650     1.5890    -0.5600 ca         1 JFV      -0.028000
     10 C07          2.2800     2.9070    -0.6160 ca         1 JFV      -0.166000
     11 C08          0.9840     3.2020    -0.1690 ca         1 JFV      -0.047000
     12 C09          0.1730     2.1750     0.3330 ca         1 JFV      -0.207000
     13 O11         -0.1620    -0.1310     0.9170 os         1 JFV      -0.222200
     14 C12         -1.4870    -0.2790     0.5720 ca         1 JFV       0.042100
     15 C14         -3.7430    -0.9480     1.2040 ca         1 JFV      -0.173500
     16 C16         -3.3040    -0.1540    -1.0490 ca         1 JFV      -0.173500
     17 H131        -2.0310    -1.0190     2.5310 ha         1 JFV       0.128500
     18 H171        -1.2570     0.3860    -1.4860 ha         1 JFV       0.128500
     19 H011         4.2350    -2.8000    -0.8380 h1         1 JFV       0.046700
     20 H012         5.5900    -2.0990     0.0720 h1         1 JFV       0.046700
     21 H013         4.1960    -2.7710     0.9440 h1         1 JFV       0.046700
     22 H061         3.7730     1.3880    -0.9170 ha         1 JFV       0.129000
     23 H071         2.9130     3.7010    -1.0060 ha         1 JFV       0.120000
     24 H081         0.6130     4.2250    -0.2080 ha         1 JFV       0.113000
     25 H091        -0.8250     2.4090     0.6940 ha         1 JFV       0.129000
     26 H141        -4.4330    -1.3280     1.9530 ha         1 JFV       0.116500
     27 H161        -3.6540     0.0820    -2.0510 ha         1 JFV       0.116500
     28 H182        -5.8810    -0.4520    -1.2860 hn         1 JFV       0.449000
     29 H181        -6.1970    -1.0220     0.3290 hn         1 JFV       0.449000
     30 N18         -5.5210    -0.8060    -0.4010 nv         1 JFV      -1.069000
     31 O02          3.8650    -0.9180     0.0150 os         1 JFV      -0.448100
@<TRIPOS>BOND
     1     1     8 ar  
     2     1    12 ar  
     3     1    13 1   
     4     2    14 ar  
     5     2    15 ar  
     6     2    17 1   
     7     3    15 ar  
     8     3    16 ar  
     9     3    30 1   
    10     4    14 ar  
    11     4    16 ar  
    12     4    18 1   
    13     5    19 1   
    14     5    20 1   
    15     5    21 1   
    16     5    31 1   
    17     6     7 2   
    18     6     8 1   
    19     6    31 1   
    20     8     9 ar  
    21     9    10 ar  
    22     9    22 1   
    23    10    11 ar  
    24    10    23 1   
    25    11    12 ar  
    26    11    24 1   
    27    12    25 1   
    28    13    14 1   
    29    15    26 1   
    30    16    27 1   
    31    28    30 1   
    32    29    30 1   
@<TRIPOS>SUBSTRUCTURE
     1 JFV         1 TEMP              0 ****  ****    0 ROOT
