@<TRIPOS>MOLECULE
JFV
   31    32     1     0     0
SMALL
abcg2


@<TRIPOS>ATOM
      1 C10          0.6090     0.5560    -0.0240 ca         1 JFV       0.195100
      2 C13         -2.1850    -0.5060     1.2470 ca         1 JFV      -0.070500
      3 C15         -4.2890    -0.4590     0.0430 ca         1 JFV       0.293000
      4 C17         -2.1830    -0.4880    -1.1550 ca         1 JFV      -0.070500
      5 C01          4.6850    -2.0490     0.1540 c3         1 JFV       0.153900
      6 C03          2.6620    -0.8950    -0.1880 c          1 JFV       0.611700
      7 O04          2.1560    -1.8930    -0.6380 o          1 JFV      -0.467000
      8 C05          2.0070     0.4340    -0.0940 ca         1 JFV      -0.175600
      9 C06          2.7810     1.5960    -0.1180 ca         1 JFV      -0.028000
     10 C07          2.2000     2.8510    -0.0960 ca         1 JFV      -0.166000
     11 C08          0.8180     2.9540    -0.0320 ca         1 JFV      -0.047000
     12 C09          0.0250     1.8200     0.0090 ca         1 JFV      -0.207000
     13 O11         -0.1150    -0.5810     0.0480 os         1 JFV      -0.222200
     14 C12         -1.4920    -0.5110     0.0470 ca         1 JFV       0.042100
     15 C14         -3.5710    -0.4810     1.2440 ca         1 JFV      -0.173500
     16 C16         -3.5680    -0.4610    -1.1570 ca         1 JFV      -0.173500
     17 H131        -1.6470    -0.5210     2.1860 ha         1 JFV       0.128500
     18 H171        -1.6420    -0.4900    -2.0930 ha         1 JFV       0.128500
     19 H011         4.7980    -2.3540    -0.8860 h1         1 JFV       0.046700
     20 H012         5.6590    -1.8090     0.5680 h1         1 JFV       0.046700
     21 H013         4.2450    -2.8690     0.7220 h1         1 JFV       0.046700
     22 H061         3.8580     1.5170    -0.1730 ha         1 JFV       0.129000
     23 H071         2.8200     3.7360    -0.1290 ha         1 JFV       0.120000
     24 H081         0.3450     3.9270    -0.0090 ha         1 JFV       0.113000
     25 H091        -1.0500     1.9250     0.0700 ha         1 JFV       0.129000
     26 H141        -4.1040    -0.4800     2.1870 ha         1 JFV       0.116500
     27 H161        -4.0980    -0.4450    -2.1020 ha         1 JFV       0.116500
     28 H182        -6.1120    -0.1330    -0.7890 hn         1 JFV       0.449000
     29 H181        -6.1140    -0.1490     0.8780 hn         1 JFV       0.449000
     30 N18         -5.6680    -0.4910     0.0410 nv         1 JFV      -1.069000
     31 O02          3.9080    -0.8580     0.2690 os         1 JFV      -0.448100
@<TRIPOS>BOND
     1     1     8 ar  
     2     1    12 ar  
     3     1    13 1   
     4     2    14 ar  
     5     2    15 ar  
     6     2    17 1   
     7     3    15 ar  
     8     3    16 ar  
     9     3    30 1   
    10     4    14 ar  
    11     4    16 ar  
    12     4    18 1   
    13     5    19 1   
    14     5    20 1   
    15     5    21 1   
    16     5    31 1   
    17     6     7 2   
    18     6     8 1   
    19     6    31 1   
    20     8     9 ar  
    21     9    10 ar  
    22     9    22 1   
    23    10    11 ar  
    24    10    23 1   
    25    11    12 ar  
    26    11    24 1   
    27    12    25 1   
    28    13    14 1   
    29    15    26 1   
    30    16    27 1   
    31    28    30 1   
    32    29    30 1   
@<TRIPOS>SUBSTRUCTURE
     1 JFV         1 TEMP              0 ****  ****    0 ROOT
