@<TRIPOS>MOLECULE
JFW
   40    43     1     0     0
SMALL
No Charge or Current Charge


@<TRIPOS>ATOM
      1 C1          94.0920   -12.5080     9.1390 ca         1 JFW      -0.051200
      2 C2          93.5990   -12.8060     7.8660 ca         1 JFW      -0.185000
      3 C3          95.3410   -12.9160     9.5320 ca         1 JFW       0.083400
      4 N4          93.5050   -11.8200    10.1620 na         1 JFW      -0.306600
      5 C5          94.3750   -13.5270     6.9730 ca         1 JFW       0.104400
      6 S6          92.0410   -12.3700     7.1960 ss         1 JFW       0.016800
      7 N7          95.6260   -12.5140    10.8270 nc         1 JFW      -0.547100
      8 C8          96.1570   -13.6500     8.6520 ca         1 JFW      -0.048000
      9 C9          94.4950   -11.8660    11.1480 cd         1 JFW       0.413700
     10 C10         95.6650   -13.9560     7.3590 ca         1 JFW      -0.080000
     11 N11         93.8160   -13.7840     5.7240 nc         1 JFW      -0.517100
     12 C12         92.5920   -13.2240     5.7280 cd         1 JFW       0.388100
     13 S13         94.2480   -11.1030    12.7260 ss         1 JFW      -0.168200
     14 C14         92.5640   -10.3370    12.6180 c3         1 JFW      -0.022700
     15 C15         92.1910    -9.6230    13.9140 ca         1 JFW       0.343300
     16 C16         92.5860    -8.2890    14.1870 ca         1 JFW      -0.114300
     17 N17         91.4520   -10.3600    14.7740 nb         1 JFW      -0.657000
     18 C18         92.1660    -7.7180    15.4090 ca         1 JFW       0.131100
     19 C19         93.4400    -7.4930    13.1920 c3         1 JFW      -0.052800
     20 C20         91.0790    -9.8020    15.9450 ca         1 JFW       0.341900
     21 C21         91.4100    -8.4870    16.3110 ca         1 JFW      -0.125300
     22 O22         92.4930    -6.4220    15.7350 os         1 JFW      -0.360100
     23 C23         90.9490    -7.9170    17.6500 c3         1 JFW      -0.038800
     24 C24         91.7080    -5.3460    15.1940 c3         1 JFW       0.150900
     25 H1          92.5910   -11.3910    10.2050 hn         1 JFW       0.362000
     26 H3          97.1470   -13.9750     8.9600 ha         1 JFW       0.137000
     27 H4          96.2790   -14.5220     6.6630 ha         1 JFW       0.135000
     28 H5          91.9170   -13.2630     4.8820 h5         1 JFW       0.059800
     29 H6          92.5390    -9.6270    11.7830 h1         1 JFW       0.077200
     30 H7          91.8300   -11.1270    12.4140 h1         1 JFW       0.077200
     31 H8          92.8250    -7.1050    12.3720 hc         1 JFW       0.054367
     32 H9          93.9400    -6.6390    13.6630 hc         1 JFW       0.054367
     33 H10         94.2340    -8.1070    12.7540 hc         1 JFW       0.054367
     34 H11         90.4890   -10.4330    16.6100 h4         1 JFW       0.025100
     35 H12         90.2240    -7.1080    17.5030 hc         1 JFW       0.049367
     36 H13         90.4700    -8.6820    18.2730 hc         1 JFW       0.049367
     37 H14         91.7940    -7.5120    18.2180 hc         1 JFW       0.049367
     38 H15         92.0910    -4.3800    15.5450 h1         1 JFW       0.039033
     39 H16         91.7410    -5.3500    14.0970 h1         1 JFW       0.039033
     40 H17         90.6610    -5.4350    15.5090 h1         1 JFW       0.039033
@<TRIPOS>BOND
     1     1     2 ar  
     2     1     3 ar  
     3     1     4 1   
     4     2     5 ar  
     5     2     6 1   
     6     3     7 1   
     7     3     8 ar  
     8     4     9 1   
     9     4    25 1   
    10     5    10 ar  
    11     5    11 1   
    12     6    12 1   
    13     7     9 2   
    14     8    10 ar  
    15     8    26 1   
    16     9    13 1   
    17    10    27 1   
    18    11    12 2   
    19    12    28 1   
    20    13    14 1   
    21    14    15 1   
    22    14    29 1   
    23    14    30 1   
    24    15    16 ar  
    25    15    17 ar  
    26    16    18 ar  
    27    16    19 1   
    28    17    20 ar  
    29    18    21 ar  
    30    18    22 1   
    31    19    31 1   
    32    19    32 1   
    33    19    33 1   
    34    20    21 ar  
    35    20    34 1   
    36    21    23 1   
    37    22    24 1   
    38    23    35 1   
    39    23    36 1   
    40    23    37 1   
    41    24    38 1   
    42    24    39 1   
    43    24    40 1   
@<TRIPOS>SUBSTRUCTURE
     1 JFW         1 TEMP              0 ****  ****    0 ROOT
