@<TRIPOS>MOLECULE
JFW
   40    43     1     0     0
SMALL
bcc


@<TRIPOS>ATOM
      1 C1          93.9420   -12.4980     9.1290 ca         1 JFW      -0.051200
      2 C2          93.5240   -12.8650     7.8560 ca         1 JFW      -0.058100
      3 C3          95.2440   -12.7820     9.5600 ca         1 JFW       0.083400
      4 N4          93.3440   -11.8590    10.1790 na         1 JFW      -0.256300
      5 C5          94.4390   -13.5270     7.0240 ca         1 JFW       0.104400
      6 S6          92.0200   -12.6680     7.0360 ss         1 JFW      -0.110100
      7 N7          95.4170   -12.3170    10.8410 nc         1 JFW      -0.547100
      8 C8          96.1540   -13.4430     8.7200 ca         1 JFW      -0.066000
      9 C9          94.2730   -11.7860    11.1690 cd         1 JFW       0.413700
     10 C10         95.7470   -13.8120     7.4590 ca         1 JFW      -0.098000
     11 N11         93.9390   -13.8550     5.7850 nc         1 JFW      -0.517100
     12 C12         92.7200   -13.4740     5.6630 cd         1 JFW       0.388100
     13 S13         94.0010   -11.1120    12.7510 ss         1 JFW      -0.120300
     14 C14         92.4150   -10.2250    12.5460 c3         1 JFW      -0.070600
     15 C15         92.1050    -9.5580    13.8560 ca         1 JFW       0.408600
     16 C16         92.5810    -8.2760    14.1480 ca         1 JFW      -0.179600
     17 N17         91.3700   -10.2740    14.6960 nb         1 JFW      -0.657000
     18 C18         92.2180    -7.7430    15.3860 ca         1 JFW       0.131100
     19 C19         93.4390    -7.5160    13.1810 c3         1 JFW      -0.052800
     20 C20         91.0620    -9.7500    15.8720 ca         1 JFW       0.407200
     21 C21         91.4480    -8.4820    16.2830 ca         1 JFW      -0.190600
     22 O22         92.6380    -6.5060    15.7520 os         1 JFW      -0.336900
     23 C23         91.0680    -7.9440    17.6270 c3         1 JFW      -0.038800
     24 C24         91.8200    -5.4420    15.2770 c3         1 JFW       0.127700
     25 H1          92.3870   -11.5410    10.2160 hn         1 JFW       0.311700
     26 H3          97.1570   -13.6560     9.0650 ha         1 JFW       0.155000
     27 H4          96.4240   -14.3220     6.7870 ha         1 JFW       0.153000
     28 H5          92.1240   -13.6260     4.7720 h5         1 JFW       0.059800
     29 H6          92.5070    -9.5130    11.7260 h1         1 JFW       0.077200
     30 H7          91.6270   -10.9430    12.3220 h1         1 JFW       0.077200
     31 H8          92.8460    -7.1160    12.3550 hc         1 JFW       0.054367
     32 H9          93.9440    -6.6810    13.6600 hc         1 JFW       0.054367
     33 H10         94.2080    -8.1560    12.7470 hc         1 JFW       0.054367
     34 H11         90.4650   -10.3670    16.5350 h4         1 JFW       0.025100
     35 H12         90.4240    -7.0670    17.5460 hc         1 JFW       0.049367
     36 H13         90.5290    -8.6950    18.2020 hc         1 JFW       0.049367
     37 H14         91.9450    -7.6470    18.2020 hc         1 JFW       0.049367
     38 H15         92.2510    -4.5170    15.6530 h1         1 JFW       0.039033
     39 H16         91.8000    -5.4030    14.1850 h1         1 JFW       0.039033
     40 H17         90.7950    -5.5300    15.6450 h1         1 JFW       0.039033
@<TRIPOS>BOND
     1     1     2 ar  
     2     1     3 ar  
     3     1     4 1   
     4     2     5 ar  
     5     2     6 1   
     6     3     7 1   
     7     3     8 ar  
     8     4     9 1   
     9     4    25 1   
    10     5    10 ar  
    11     5    11 1   
    12     6    12 1   
    13     7     9 2   
    14     8    10 ar  
    15     8    26 1   
    16     9    13 1   
    17    10    27 1   
    18    11    12 2   
    19    12    28 1   
    20    13    14 1   
    21    14    15 1   
    22    14    29 1   
    23    14    30 1   
    24    15    16 ar  
    25    15    17 ar  
    26    16    18 ar  
    27    16    19 1   
    28    17    20 ar  
    29    18    21 ar  
    30    18    22 1   
    31    19    31 1   
    32    19    32 1   
    33    19    33 1   
    34    20    21 ar  
    35    20    34 1   
    36    21    23 1   
    37    22    24 1   
    38    23    35 1   
    39    23    36 1   
    40    23    37 1   
    41    24    38 1   
    42    24    39 1   
    43    24    40 1   
@<TRIPOS>SUBSTRUCTURE
     1 JFW         1 TEMP              0 ****  ****    0 ROOT
