@<TRIPOS>MOLECULE
JFX
   35    36     1     0     0
SMALL
No Charge or Current Charge


@<TRIPOS>ATOM
      1 C01         -5.0310     0.9330    -2.2090 c3         1 JFX      -0.103400
      2 C02         -4.5240     0.9790    -0.7970 cc         1 JFX       0.362900
      3 C05         -3.2230     0.6770     0.9900 ca         1 JFX      -0.030200
      4 C06         -3.2840     0.4060    -0.3370 ca         1 JFX      -0.227900
      5 C07         -2.2710    -0.3030    -0.9990 ca         1 JFX      -0.060000
      6 C08         -1.1550    -0.7370    -0.2450 ca         1 JFX       0.189000
      7 C11          2.1130    -0.0050    -0.2770 c3         1 JFX      -0.343400
      8 C12          3.6160     0.0110     0.0910 c3         1 JFX      -0.044400
      9 C13          4.1560     1.4450     0.2770 c3         1 JFX      -0.107400
     10 C14          5.6520     1.4850     0.6450 c3         1 JFX       0.182600
     11 C18         -1.1050    -0.4520     1.1500 ca         1 JFX      -0.045000
     12 C19         -2.1470     0.2660     1.7830 ca         1 JFX      -0.119000
     13 F15          6.0560     2.7700     0.7910 f          1 JFX      -0.271000
     14 N03         -5.1950     1.5760     0.2020 nd         1 JFX      -0.510100
     15 N04         -4.3650     1.3770     1.3150 na         1 JFX      -0.058400
     16 N09         -0.1440    -1.4440    -0.9090 nu         1 JFX      -0.864100
     17 O16          2.0640    -2.2670    -1.6840 o          1 JFX      -0.524000
     18 O17          1.4610    -2.3760     0.7830 o          1 JFX      -0.524000
     19 S10          1.4540    -1.6650    -0.4980 s6         1 JFX       1.171100
     20 H1          -5.1610    -0.1050    -2.5370 hc         1 JFX       0.051700
     21 H2          -5.9970     1.4420    -2.3040 hc         1 JFX       0.051700
     22 H3          -4.3230     1.4190    -2.8890 hc         1 JFX       0.051700
     23 H4          -2.3420    -0.5100    -2.0640 ha         1 JFX       0.117000
     24 H5           1.5180     0.4630     0.5130 h1         1 JFX       0.093700
     25 H6           1.9400     0.5210    -1.2220 h1         1 JFX       0.093700
     26 H7           3.7730    -0.5560     1.0180 hc         1 JFX       0.059700
     27 H8           4.1930    -0.4930    -0.6960 hc         1 JFX       0.059700
     28 H9           4.0010     2.0130    -0.6490 hc         1 JFX       0.056700
     29 H10          3.5810     1.9500     1.0630 hc         1 JFX       0.056700
     30 H11          5.8260     0.9520     1.5880 h1         1 JFX       0.044200
     31 H12          6.2510     1.0160    -0.1460 h1         1 JFX       0.044200
     32 H13         -0.2690    -0.7850     1.7550 ha         1 JFX       0.146000
     33 H14         -2.1120     0.4850     2.8470 ha         1 JFX       0.130000
     34 H16         -0.1850    -1.5120    -1.9180 hn         1 JFX       0.487000
     35 H15         -4.6150     1.7260     2.2390 hn         1 JFX       0.382000
@<TRIPOS>BOND
     1     1     2 1   
     2     1    20 1   
     3     1    21 1   
     4     1    22 1   
     5     2     4 1   
     6     2    14 2   
     7     3     4 ar  
     8     3    12 ar  
     9     3    15 1   
    10     4     5 ar  
    11     5     6 ar  
    12     5    23 1   
    13     6    11 ar  
    14     6    16 1   
    15     7     8 1   
    16     7    19 1   
    17     7    24 1   
    18     7    25 1   
    19     8     9 1   
    20     8    26 1   
    21     8    27 1   
    22     9    10 1   
    23     9    28 1   
    24     9    29 1   
    25    10    13 1   
    26    10    30 1   
    27    10    31 1   
    28    11    12 ar  
    29    11    32 1   
    30    12    33 1   
    31    14    15 1   
    32    15    35 1   
    33    16    19 1   
    34    16    34 1   
    35    17    19 2   
    36    18    19 2   
@<TRIPOS>SUBSTRUCTURE
     1 JFX         1 TEMP              0 ****  ****    0 ROOT
