@<TRIPOS>MOLECULE
JFX
   35    36     1     0     0
SMALL
bcc


@<TRIPOS>ATOM
      1 C01         -3.6710     2.0710    -1.9880 c3         1 JFX      -0.103400
      2 C02         -3.6890     1.4340    -0.6440 cc         1 JFX       0.362900
      3 C05         -3.2660     0.1610     1.1510 ca         1 JFX      -0.030200
      4 C06         -2.8390     0.3940    -0.1650 ca         1 JFX      -0.227900
      5 C07         -1.7740    -0.3380    -0.6990 ca         1 JFX      -0.078000
      6 C08         -1.1860    -1.3020     0.0910 ca         1 JFX       0.050600
      7 C11          1.8390    -0.1600    -0.4500 c3         1 JFX      -0.232600
      8 C12          3.2530     0.2130    -0.0290 c3         1 JFX      -0.044400
      9 C13          3.5990     1.6260    -0.4870 c3         1 JFX      -0.107400
     10 C14          5.0000     1.9980    -0.0590 c3         1 JFX       0.163900
     11 C18         -1.6400    -1.5410     1.4070 ca         1 JFX      -0.063000
     12 C19         -2.6680    -0.8140     1.9580 ca         1 JFX      -0.137000
     13 F15          5.3110     3.2840    -0.5000 f          1 JFX      -0.252300
     14 N03         -4.5350     1.7840     0.2930 nd         1 JFX      -0.510100
     15 N04         -4.2830     1.0240     1.3650 na         1 JFX      -0.008100
     16 N09         -0.1340    -2.1080    -0.4260 nu         1 JFX      -0.670500
     17 O16          2.2530    -2.7620    -0.6870 o          1 JFX      -0.594800
     18 O17          1.4480    -1.8670     1.5170 o          1 JFX      -0.594800
     19 S10          1.4310    -1.8260     0.0640 s6         1 JFX       1.201900
     20 H1          -3.8350     1.3330    -2.7750 hc         1 JFX       0.051700
     21 H2          -4.4440     2.8320    -2.0700 hc         1 JFX       0.051700
     22 H3          -2.7070     2.5430    -2.1860 hc         1 JFX       0.051700
     23 H4          -1.4240    -0.1600    -1.7090 ha         1 JFX       0.135000
     24 H5           1.0990     0.5040     0.0010 h1         1 JFX       0.093700
     25 H6           1.7180    -0.1280    -1.5350 h1         1 JFX       0.093700
     26 H7           3.3410     0.1440     1.0570 hc         1 JFX       0.059700
     27 H8           3.9640    -0.4970    -0.4580 hc         1 JFX       0.059700
     28 H9           3.5210     1.6930    -1.5760 hc         1 JFX       0.056700
     29 H10          2.8860     2.3390    -0.0640 hc         1 JFX       0.056700
     30 H11          5.0960     1.9830     1.0280 h1         1 JFX       0.044200
     31 H12          5.7360     1.3110    -0.4820 h1         1 JFX       0.044200
     32 H13         -1.1730    -2.3240     1.9880 ha         1 JFX       0.164000
     33 H14         -3.0050    -1.0040     2.9680 ha         1 JFX       0.148000
     34 H16         -0.1820    -2.2730    -1.4270 hn         1 JFX       0.431800
     35 H15         -4.8330     1.1400     2.2000 hn         1 JFX       0.331700
@<TRIPOS>BOND
     1     1     2 1   
     2     1    20 1   
     3     1    21 1   
     4     1    22 1   
     5     2     4 1   
     6     2    14 2   
     7     3     4 ar  
     8     3    12 ar  
     9     3    15 1   
    10     4     5 ar  
    11     5     6 ar  
    12     5    23 1   
    13     6    11 ar  
    14     6    16 1   
    15     7     8 1   
    16     7    19 1   
    17     7    24 1   
    18     7    25 1   
    19     8     9 1   
    20     8    26 1   
    21     8    27 1   
    22     9    10 1   
    23     9    28 1   
    24     9    29 1   
    25    10    13 1   
    26    10    30 1   
    27    10    31 1   
    28    11    12 ar  
    29    11    32 1   
    30    12    33 1   
    31    14    15 1   
    32    15    35 1   
    33    16    19 1   
    34    16    34 1   
    35    17    19 2   
    36    18    19 2   
@<TRIPOS>SUBSTRUCTURE
     1 JFX         1 TEMP              0 ****  ****    0 ROOT
