@<TRIPOS>MOLECULE
JFY
   32    32     1     0     0
SMALL
No Charge or Current Charge


@<TRIPOS>ATOM
      1 C10          1.1130    -0.6790    -0.7550 ca         1 JFY      -0.096500
      2 C15         -3.3590     0.7390    -1.2560 c3         1 JFY      -0.383100
      3 C02          4.4110    -0.4250     0.6390 c3         1 JFY      -0.070400
      4 C03          3.5220     0.1170    -0.5120 c3         1 JFY      -0.017400
      5 C04          3.9750     1.5050    -1.0230 c3         1 JFY      -0.084100
      6 C05          2.0490     0.1420    -0.0970 ca         1 JFY      -0.068300
      7 C06          1.6050     0.9780     0.9470 ca         1 JFY      -0.096500
      8 C07          0.2490     0.9920     1.3210 ca         1 JFY      -0.108000
      9 C08         -0.6880     0.1790     0.6600 ca         1 JFY       0.227000
     10 C09         -0.2420    -0.6630    -0.3790 ca         1 JFY      -0.108000
     11 N11         -2.0210     0.2340     1.0730 nu         1 JFY      -0.871100
     12 S12         -3.4110    -0.1880     0.2650 s6         1 JFY       1.187100
     13 O13         -4.5010     0.3280     1.0940 o          1 JFY      -0.525500
     14 O14         -3.3120    -1.6190    -0.0280 o          1 JFY      -0.525500
     15 H101         1.4330    -1.3370    -1.5600 ha         1 JFY       0.118500
     16 H152        -2.4730     0.4210    -1.8130 h1         1 JFY       0.102367
     17 H153        -4.2760     0.5120    -1.8080 h1         1 JFY       0.102367
     18 H151        -3.3060     1.8000    -0.9940 h1         1 JFY       0.102367
     19 H013         5.9320    -1.3800    -0.6110 hc         1 JFY       0.033367
     20 H011         6.3980     0.2320    -0.0170 hc         1 JFY       0.033367
     21 H012         6.4160    -1.1580     1.0820 hc         1 JFY       0.033367
     22 H022         3.9760    -1.3640     1.0040 hc         1 JFY       0.041700
     23 H021         4.3940     0.2750     1.4830 hc         1 JFY       0.041700
     24 H031         3.6330    -0.5780    -1.3550 hc         1 JFY       0.052700
     25 H043         4.0000     2.2390    -0.2090 hc         1 JFY       0.035700
     26 H042         4.9750     1.4550    -1.4700 hc         1 JFY       0.035700
     27 H041         3.2860     1.8720    -1.7930 hc         1 JFY       0.035700
     28 H061         2.3080     1.6180     1.4740 ha         1 JFY       0.118500
     29 H071        -0.0720     1.6430     2.1300 ha         1 JFY       0.127000
     30 H091        -0.9320    -1.3150    -0.9020 ha         1 JFY       0.127000
     31 H111        -2.2910     0.9440     1.7410 hn         1 JFY       0.486000
     32 C01          5.8790    -0.6970     0.2450 c3         1 JFY      -0.089100
@<TRIPOS>BOND
     1     1     6 ar  
     2     1    10 ar  
     3     1    15 1   
     4     2    12 1   
     5     2    16 1   
     6     2    17 1   
     7     2    18 1   
     8     3     4 1   
     9     3    22 1   
    10     3    23 1   
    11     3    32 1   
    12     4     5 1   
    13     4     6 1   
    14     4    24 1   
    15     5    25 1   
    16     5    26 1   
    17     5    27 1   
    18     6     7 ar  
    19     7     8 ar  
    20     7    28 1   
    21     8     9 ar  
    22     8    29 1   
    23     9    10 ar  
    24     9    11 1   
    25    10    30 1   
    26    11    12 1   
    27    11    31 1   
    28    12    13 2   
    29    12    14 2   
    30    19    32 1   
    31    20    32 1   
    32    21    32 1   
@<TRIPOS>SUBSTRUCTURE
     1 JFY         1 TEMP              0 ****  ****    0 ROOT
