@<TRIPOS>MOLECULE
JFY
   32    32     1     0     0
SMALL
abcg2


@<TRIPOS>ATOM
      1 C10          1.2180    -1.1890    -0.4360 ca         1 JFY      -0.096500
      2 C15         -3.1620     1.5560    -0.6910 c3         1 JFY      -0.383100
      3 C02          4.3530    -0.2450     0.6890 c3         1 JFY      -0.070400
      4 C03          3.4650    -0.0510    -0.5480 c3         1 JFY      -0.017400
      5 C04          3.8200     1.2160    -1.3250 c3         1 JFY      -0.084100
      6 C05          2.0090    -0.0790    -0.1500 ca         1 JFY      -0.068300
      7 C06          1.4220     0.9770     0.5450 ca         1 JFY      -0.096500
      8 C07          0.0880     0.9330     0.9200 ca         1 JFY      -0.108000
      9 C08         -0.6850    -0.1860     0.6300 ca         1 JFY       0.227000
     10 C09         -0.1110    -1.2560    -0.0450 ca         1 JFY      -0.108000
     11 N11         -2.0400    -0.2570     1.0510 nu         1 JFY      -0.871100
     12 S12         -3.2600    -0.1070    -0.0700 s6         1 JFY       1.187100
     13 O13         -4.4980    -0.2600     0.6740 o          1 JFY      -0.525500
     14 O14         -2.9610    -1.0170    -1.1630 o          1 JFY      -0.525500
     15 H101         1.6530    -2.0300    -0.9620 ha         1 JFY       0.118500
     16 H152        -2.1820     1.7190    -1.1340 h1         1 JFY       0.102367
     17 H153        -3.9340     1.6770    -1.4500 h1         1 JFY       0.102367
     18 H151        -3.3290     2.2530     0.1270 h1         1 JFY       0.102367
     19 H013         5.9910    -1.2110    -0.3570 hc         1 JFY       0.033367
     20 H011         6.2710     0.4990    -0.0440 hc         1 JFY       0.033367
     21 H012         6.3970    -0.6620     1.2660 hc         1 JFY       0.033367
     22 H022         4.0050    -1.1300     1.2280 hc         1 JFY       0.041700
     23 H021         4.2130     0.6020     1.3680 hc         1 JFY       0.041700
     24 H031         3.6350    -0.9070    -1.2110 hc         1 JFY       0.052700
     25 H043         3.7850     2.1040    -0.6900 hc         1 JFY       0.035700
     26 H042         4.8270     1.1540    -1.7380 hc         1 JFY       0.035700
     27 H041         3.1340     1.3720    -2.1570 hc         1 JFY       0.035700
     28 H061         2.0030     1.8560     0.7980 ha         1 JFY       0.118500
     29 H071        -0.3540     1.7720     1.4460 ha         1 JFY       0.127000
     30 H091        -0.6920    -2.1430    -0.2550 ha         1 JFY       0.127000
     31 H111        -2.2460     0.2720     1.8930 hn         1 JFY       0.486000
     32 C01          5.8330    -0.4100     0.3680 c3         1 JFY      -0.089100
@<TRIPOS>BOND
     1     1     6 ar  
     2     1    10 ar  
     3     1    15 1   
     4     2    12 1   
     5     2    16 1   
     6     2    17 1   
     7     2    18 1   
     8     3     4 1   
     9     3    22 1   
    10     3    23 1   
    11     3    32 1   
    12     4     5 1   
    13     4     6 1   
    14     4    24 1   
    15     5    25 1   
    16     5    26 1   
    17     5    27 1   
    18     6     7 ar  
    19     7     8 ar  
    20     7    28 1   
    21     8     9 ar  
    22     8    29 1   
    23     9    10 ar  
    24     9    11 1   
    25    10    30 1   
    26    11    12 1   
    27    11    31 1   
    28    12    13 2   
    29    12    14 2   
    30    19    32 1   
    31    20    32 1   
    32    21    32 1   
@<TRIPOS>SUBSTRUCTURE
     1 JFY         1 TEMP              0 ****  ****    0 ROOT
