@<TRIPOS>MOLECULE
JFZ
   35    36     1     0     0
SMALL
bcc


@<TRIPOS>ATOM
      1 C1           1.2910     0.2610    -0.8320 c6         1 JFZ       0.313900
      2 C2           2.6280     0.9900    -0.6660 c6         1 JFZ       0.093100
      3 O2           2.4640     2.3840    -0.6590 oh         1 JFZ      -0.585800
      4 C3           3.3060     0.5800     0.6380 c6         1 JFZ       0.164100
      5 O3           4.5890     1.1370     0.7520 oh         1 JFZ      -0.577800
      6 C4           3.4130    -0.9370     0.7080 c6         1 JFZ       0.125100
      7 O4           4.3070    -1.3640    -0.2910 oh         1 JFZ      -0.575800
      8 C5           2.0170    -1.5410     0.5430 c6         1 JFZ       0.110100
      9 C6           2.0200    -3.0540     0.5220 c3         1 JFZ      -0.093100
     10 O5           1.4200    -1.1070    -0.6810 os         1 JFZ      -0.407600
     11 O1           0.3980     0.8090     0.1210 os         1 JFZ      -0.336900
     12 C7          -0.9160     0.5710     0.0340 ca         1 JFZ       0.196100
     13 C8          -1.5180    -0.2370    -0.9340 ca         1 JFZ      -0.205000
     14 C9          -2.8930    -0.3870    -0.9450 ca         1 JFZ      -0.025500
     15 C10         -3.6670     0.2500     0.0140 ca         1 JFZ      -0.226200
     16 C11         -3.0780     1.0450     0.9920 ca         1 JFZ      -0.025500
     17 C12         -1.7100     1.2020     0.9980 ca         1 JFZ      -0.205000
     18 N1          -5.1010     0.0850    -0.0030 no         1 JFZ       0.322200
     19 O6          -5.5890    -0.6120    -0.8650 o          1 JFZ      -0.216000
     20 O7          -5.7520     0.6520     0.8450 o          1 JFZ      -0.216000
     21 H1           0.9000     0.4290    -1.8420 h2         1 JFZ       0.080700
     22 H2           3.2610     0.6700    -1.5030 h1         1 JFZ       0.081700
     23 H3           2.3790     2.6950    -1.5650 ho         1 JFZ       0.414000
     24 H4           3.7740    -1.2130     1.7090 h1         1 JFZ       0.053700
     25 H5           4.5420    -2.2820    -0.1240 ho         1 JFZ       0.408000
     26 H6           1.4110    -1.2080     1.3950 h1         1 JFZ       0.055700
     27 H7           2.5890    -3.4500    -0.3200 hc         1 JFZ       0.050367
     28 H8           2.4580    -3.4380     1.4440 hc         1 JFZ       0.050367
     29 H9           1.0040    -3.4400     0.4530 hc         1 JFZ       0.050367
     30 H10         -0.9430    -0.7600    -1.6830 ha         1 JFZ       0.158500
     31 H11         -3.3450    -1.0090    -1.7040 ha         1 JFZ       0.169000
     32 H12         -3.6730     1.5420     1.7440 ha         1 JFZ       0.169000
     33 H13         -1.2400     1.8200     1.7500 ha         1 JFZ       0.158500
     34 H14          2.6700     0.8970     1.4790 h1         1 JFZ       0.054700
     35 H15          4.4980     2.0950     0.7430 ho         1 JFZ       0.420000
@<TRIPOS>BOND
     1     1     2 1   
     2     1    10 1   
     3     1    11 1   
     4     1    21 1   
     5     2     3 1   
     6     2     4 1   
     7     2    22 1   
     8     3    23 1   
     9     4     5 1   
    10     4     6 1   
    11     4    34 1   
    12     5    35 1   
    13     6     7 1   
    14     6     8 1   
    15     6    24 1   
    16     7    25 1   
    17     8     9 1   
    18     8    10 1   
    19     8    26 1   
    20     9    27 1   
    21     9    28 1   
    22     9    29 1   
    23    11    12 1   
    24    12    13 ar  
    25    12    17 ar  
    26    13    14 ar  
    27    13    30 1   
    28    14    15 ar  
    29    14    31 1   
    30    15    16 ar  
    31    15    18 1   
    32    16    17 ar  
    33    16    32 1   
    34    17    33 1   
    35    18    19 1   
    36    18    20 1   
@<TRIPOS>SUBSTRUCTURE
     1 JFZ         1 TEMP              0 ****  ****    0 ROOT
