@<TRIPOS>MOLECULE
JFZ
   35    36     1     0     0
SMALL
No Charge or Current Charge


@<TRIPOS>ATOM
      1 C1           1.3720     0.4100    -0.8670 c6         1 JFZ       0.360300
      2 C2           2.7980     1.0510    -0.6940 c6         1 JFZ       0.116300
      3 O2           2.7880     2.5060    -0.7530 oh         1 JFZ      -0.708000
      4 C3           3.4190     0.5840     0.6590 c6         1 JFZ       0.187300
      5 O3           4.7250     1.1680     0.8270 oh         1 JFZ      -0.640000
      6 C4           3.4480    -0.9780     0.7390 c6         1 JFZ       0.148300
      7 O4           4.3230    -1.5380    -0.2740 oh         1 JFZ      -0.698000
      8 C5           1.9730    -1.4720     0.5650 c6         1 JFZ       0.133300
      9 C6           1.8210    -3.0140     0.6070 c3         1 JFZ      -0.093100
     10 O5           1.4390    -1.0300    -0.7050 os         1 JFZ      -0.454000
     11 O1           0.4300     0.9640     0.0780 os         1 JFZ      -0.360100
     12 C7          -0.9160     0.6650     0.0210 ca         1 JFZ       0.196100
     13 C8          -1.4970    -0.1030    -1.0100 ca         1 JFZ      -0.187000
     14 C9          -2.8780    -0.3650    -1.0070 ca         1 JFZ      -0.007500
     15 C10         -3.7000     0.1400     0.0270 ca         1 JFZ      -0.226200
     16 C11         -3.1130     0.9130     1.0550 ca         1 JFZ      -0.007500
     17 C12         -1.7320     1.1700     1.0440 ca         1 JFZ      -0.187000
     18 N1          -5.1710    -0.1380     0.0330 no         1 JFZ       0.702200
     19 O6          -5.6410    -0.8190    -0.8880 o          1 JFZ      -0.406000
     20 O7          -5.8510     0.3250     0.9580 o          1 JFZ      -0.406000
     21 H1           1.0230     0.6380    -1.8860 h2         1 JFZ       0.080700
     22 H2           3.4250     0.6550    -1.5070 h1         1 JFZ       0.081700
     23 H3           2.3550     2.7720    -1.5990 ho         1 JFZ       0.513000
     24 H4           3.7970    -1.2660     1.7430 h1         1 JFZ       0.053700
     25 H5           4.3930    -2.5030    -0.0950 ho         1 JFZ       0.507000
     26 H6           1.3570    -1.0570     1.3780 h1         1 JFZ       0.055700
     27 H7           2.3300    -3.4970    -0.2350 hc         1 JFZ       0.050367
     28 H8           2.2320    -3.4260     1.5360 hc         1 JFZ       0.050367
     29 H9           0.7630    -3.2990     0.5610 hc         1 JFZ       0.050367
     30 H10         -0.8980    -0.5080    -1.8200 ha         1 JFZ       0.140500
     31 H11         -3.3010    -0.9630    -1.8130 ha         1 JFZ       0.151000
     32 H12         -3.7180     1.3190     1.8660 ha         1 JFZ       0.151000
     33 H13         -1.2870     1.7650     1.8370 ha         1 JFZ       0.140500
     34 H14          2.7640     0.9440     1.4670 h1         1 JFZ       0.054700
     35 H15          4.6430     2.0600     0.4170 ho         1 JFZ       0.459000
@<TRIPOS>BOND
     1     1     2 1   
     2     1    10 1   
     3     1    11 1   
     4     1    21 1   
     5     2     3 1   
     6     2     4 1   
     7     2    22 1   
     8     3    23 1   
     9     4     5 1   
    10     4     6 1   
    11     4    34 1   
    12     5    35 1   
    13     6     7 1   
    14     6     8 1   
    15     6    24 1   
    16     7    25 1   
    17     8     9 1   
    18     8    10 1   
    19     8    26 1   
    20     9    27 1   
    21     9    28 1   
    22     9    29 1   
    23    11    12 1   
    24    12    13 ar  
    25    12    17 ar  
    26    13    14 ar  
    27    13    30 1   
    28    14    15 ar  
    29    14    31 1   
    30    15    16 ar  
    31    15    18 1   
    32    16    17 ar  
    33    16    32 1   
    34    17    33 1   
    35    18    19 1   
    36    18    20 1   
@<TRIPOS>SUBSTRUCTURE
     1 JFZ         1 TEMP              0 ****  ****    0 ROOT
