@<TRIPOS>MOLECULE
JG1
   46    48     1     0     0
SMALL
bcc


@<TRIPOS>ATOM
      1 N1           6.6760     0.8930    -0.0330 nb         1 JG1      -0.635000
      2 C2           6.2850    -0.3760     0.0060 ca         1 JG1       0.357300
      3 C3           7.1600    -1.4550     0.0270 ca         1 JG1      -0.191300
      4 C4           8.5190    -1.1860     0.0060 ca         1 JG1      -0.098000
      5 C5           8.9390     0.1340    -0.0340 ca         1 JG1      -0.225300
      6 C6           7.9770     1.1360    -0.0530 ca         1 JG1       0.403200
      7 C7           4.8450    -0.6070     0.0260 cc         1 JG1       0.422400
      8 N8           4.2150    -1.7380     0.0590 nd         1 JG1      -0.363000
      9 N9           2.8920    -1.4410     0.0640 nd         1 JG1      -0.332000
     10 C10          2.8000    -0.1580     0.0340 cc         1 JG1       0.367900
     11 O11          4.0030     0.4260     0.0100 os         1 JG1      -0.289800
     12 C12          1.5810     0.6890     0.0230 c          1 JG1       0.512600
     13 C13          0.2740    -0.0400     0.0300 c3         1 JG1      -0.164400
     14 O14          1.7090     1.8890     0.0090 o          1 JG1      -0.470100
     15 C15         -0.9440     0.8710     0.0330 c3         1 JG1      -0.069400
     16 C16         -2.2430     0.0740     0.0280 c3         1 JG1      -0.075400
     17 C17         -3.4750     0.9700     0.0280 c3         1 JG1      -0.076400
     18 C18         -4.7830     0.1910     0.0090 c3         1 JG1      -0.073400
     19 C19         -6.0080     1.1070     0.0060 c3         1 JG1      -0.031100
     20 C20         -7.2980     0.3360    -0.0240 ca         1 JG1      -0.077300
     21 C21         -7.8760    -0.0440    -1.2340 ca         1 JG1      -0.125500
     22 C22         -9.0480    -0.7880    -1.2640 ca         1 JG1      -0.127000
     23 C23         -9.6640    -1.1680    -0.0780 ca         1 JG1      -0.130000
     24 C24         -9.0980    -0.7970     1.1350 ca         1 JG1      -0.127000
     25 C25         -7.9250    -0.0530     1.1580 ca         1 JG1      -0.125500
     26 H3           6.7890    -2.4700     0.0600 ha         1 JG1       0.168000
     27 H4           9.2360    -1.9950     0.0210 ha         1 JG1       0.146000
     28 H5           9.9890     0.3880    -0.0520 ha         1 JG1       0.148000
     29 H6           8.2720     2.1780    -0.0840 h4         1 JG1       0.029100
     30 H13          0.2580    -0.7080    -0.8390 hc         1 JG1       0.082200
     31 H13A         0.2620    -0.7080     0.8980 hc         1 JG1       0.082200
     32 H15         -0.9190     1.5210     0.9110 hc         1 JG1       0.052700
     33 H15A        -0.9180     1.5270    -0.8420 hc         1 JG1       0.052700
     34 H16         -2.2680    -0.5800    -0.8500 hc         1 JG1       0.040700
     35 H16A        -2.2720    -0.5870     0.9010 hc         1 JG1       0.040700
     36 H17         -3.4520     1.6200     0.9090 hc         1 JG1       0.039700
     37 H17A        -3.4380     1.6370    -0.8420 hc         1 JG1       0.039700
     38 H18         -4.8130    -0.4550    -0.8750 hc         1 JG1       0.042700
     39 H18A        -4.8300    -0.4750     0.8770 hc         1 JG1       0.042700
     40 H19         -5.9800     1.7460     0.8930 hc         1 JG1       0.046200
     41 H19A        -5.9540     1.7730    -0.8600 hc         1 JG1       0.046200
     42 H21         -7.4060     0.2500    -2.1660 ha         1 JG1       0.128000
     43 H22         -9.4840    -1.0660    -2.2150 ha         1 JG1       0.129000
     44 H23        -10.5790    -1.7460    -0.1000 ha         1 JG1       0.129000
     45 H24         -9.5710    -1.0830     2.0650 ha         1 JG1       0.129000
     46 H25         -7.4940     0.2340     2.1110 ha         1 JG1       0.128000
@<TRIPOS>BOND
     1     1     2 ar  
     2     1     6 ar  
     3     2     3 ar  
     4     2     7 1   
     5     3     4 ar  
     6     3    26 1   
     7     4     5 ar  
     8     4    27 1   
     9     5     6 ar  
    10     5    28 1   
    11     6    29 1   
    12     7     8 2   
    13     7    11 1   
    14     8     9 1   
    15     9    10 2   
    16    10    11 1   
    17    10    12 1   
    18    12    13 1   
    19    12    14 2   
    20    13    15 1   
    21    13    30 1   
    22    13    31 1   
    23    15    16 1   
    24    15    32 1   
    25    15    33 1   
    26    16    17 1   
    27    16    34 1   
    28    16    35 1   
    29    17    18 1   
    30    17    36 1   
    31    17    37 1   
    32    18    19 1   
    33    18    38 1   
    34    18    39 1   
    35    19    20 1   
    36    19    40 1   
    37    19    41 1   
    38    20    21 ar  
    39    20    25 ar  
    40    21    22 ar  
    41    21    42 1   
    42    22    23 ar  
    43    22    43 1   
    44    23    24 ar  
    45    23    44 1   
    46    24    25 ar  
    47    24    45 1   
    48    25    46 1   
@<TRIPOS>SUBSTRUCTURE
     1 JG1         1 TEMP              0 ****  ****    0 ROOT
