@<TRIPOS>MOLECULE
JG1
   46    48     1     0     0
SMALL
No Charge or Current Charge


@<TRIPOS>ATOM
      1 N1           6.9030     0.9030     0.0230 nb         1 JG1      -0.635000
      2 C2           6.4060    -0.3680     0.0140 ca         1 JG1       0.292000
      3 C3           7.2660    -1.4910     0.0100 ca         1 JG1      -0.108000
      4 C4           8.6590    -1.3060     0.0150 ca         1 JG1      -0.080000
      5 C5           9.1540     0.0070     0.0230 ca         1 JG1      -0.142000
      6 C6           8.2460     1.0780     0.0270 ca         1 JG1       0.337900
      7 C7           4.9370    -0.5640     0.0100 cc         1 JG1       0.378000
      8 N8           4.2700    -1.7110     0.0020 nd         1 JG1      -0.363000
      9 N9           2.9400    -1.3810     0.0010 nd         1 JG1      -0.332000
     10 C10          2.8750    -0.0520     0.0080 cc         1 JG1       0.323500
     11 O11          4.1130     0.5190     0.0140 os         1 JG1      -0.201000
     12 C12          1.6430     0.7950     0.0100 c          1 JG1       0.512600
     13 C13          0.2850     0.0590     0.0020 c3         1 JG1      -0.164400
     14 O14          1.6870     2.0240     0.0160 o          1 JG1      -0.470100
     15 C15         -0.9790     0.9580     0.0030 c3         1 JG1      -0.069400
     16 C16         -2.2920     0.1450    -0.0040 c3         1 JG1      -0.075400
     17 C17         -3.5530     1.0360    -0.0040 c3         1 JG1      -0.076400
     18 C18         -4.8660     0.2230    -0.0110 c3         1 JG1      -0.073400
     19 C19         -6.1300     1.1100    -0.0110 c3         1 JG1      -0.031100
     20 C20         -7.4090     0.2830    -0.0180 ca         1 JG1      -0.077300
     21 C21         -8.0000    -0.1010    -1.2370 ca         1 JG1      -0.107500
     22 C22         -9.1780    -0.8680    -1.2440 ca         1 JG1      -0.109000
     23 C23         -9.7720    -1.2550    -0.0310 ca         1 JG1      -0.112000
     24 C24         -9.1860    -0.8760     1.1890 ca         1 JG1      -0.109000
     25 C25         -8.0080    -0.1100     1.1950 ca         1 JG1      -0.107500
     26 H3           6.8550    -2.4980     0.0040 ha         1 JG1       0.150000
     27 H4           9.3360    -2.1580     0.0110 ha         1 JG1       0.128000
     28 H5          10.2230     0.2000     0.0270 ha         1 JG1       0.130000
     29 H6           8.6020     2.1070     0.0340 h4         1 JG1       0.029100
     30 H13          0.2900    -0.6360    -0.8450 hc         1 JG1       0.082200
     31 H13A         0.2850    -0.6440     0.8430 hc         1 JG1       0.082200
     32 H15         -0.9610     1.6060     0.8880 hc         1 JG1       0.052700
     33 H15A        -0.9570     1.6140    -0.8760 hc         1 JG1       0.052700
     34 H16         -2.3090    -0.5030    -0.8890 hc         1 JG1       0.040700
     35 H16A        -2.3140    -0.5120     0.8740 hc         1 JG1       0.040700
     36 H17         -3.5360     1.6840     0.8810 hc         1 JG1       0.039700
     37 H17A        -3.5310     1.6920    -0.8830 hc         1 JG1       0.039700
     38 H18         -4.8850    -0.4260    -0.8960 hc         1 JG1       0.042700
     39 H18A        -4.8900    -0.4340     0.8670 hc         1 JG1       0.042700
     40 H19         -6.1100     1.7640     0.8690 hc         1 JG1       0.046200
     41 H19A        -6.1050     1.7720    -0.8850 hc         1 JG1       0.046200
     42 H21         -7.5450     0.1930    -2.1810 ha         1 JG1       0.110000
     43 H22         -9.6300    -1.1620    -2.1890 ha         1 JG1       0.111000
     44 H23        -10.6840    -1.8490    -0.0360 ha         1 JG1       0.111000
     45 H24         -9.6440    -1.1770     2.1290 ha         1 JG1       0.111000
     46 H25         -7.5590     0.1770     2.1440 ha         1 JG1       0.110000
@<TRIPOS>BOND
     1     1     2 ar  
     2     1     6 ar  
     3     2     3 ar  
     4     2     7 1   
     5     3     4 ar  
     6     3    26 1   
     7     4     5 ar  
     8     4    27 1   
     9     5     6 ar  
    10     5    28 1   
    11     6    29 1   
    12     7     8 2   
    13     7    11 1   
    14     8     9 1   
    15     9    10 2   
    16    10    11 1   
    17    10    12 1   
    18    12    13 1   
    19    12    14 2   
    20    13    15 1   
    21    13    30 1   
    22    13    31 1   
    23    15    16 1   
    24    15    32 1   
    25    15    33 1   
    26    16    17 1   
    27    16    34 1   
    28    16    35 1   
    29    17    18 1   
    30    17    36 1   
    31    17    37 1   
    32    18    19 1   
    33    18    38 1   
    34    18    39 1   
    35    19    20 1   
    36    19    40 1   
    37    19    41 1   
    38    20    21 ar  
    39    20    25 ar  
    40    21    22 ar  
    41    21    42 1   
    42    22    23 ar  
    43    22    43 1   
    44    23    24 ar  
    45    23    44 1   
    46    24    25 ar  
    47    24    45 1   
    48    25    46 1   
@<TRIPOS>SUBSTRUCTURE
     1 JG1         1 TEMP              0 ****  ****    0 ROOT
