@<TRIPOS>MOLECULE
JG2
   49    51     1     0     0
SMALL
No Charge or Current Charge


@<TRIPOS>ATOM
      1 N1         -14.6100    35.4390    -5.6270 nb         1 JG2      -0.620000
      2 O1         -12.8510    41.1430    -2.0630 oh         1 JG2      -0.641000
      3 C2         -14.4010    36.7680    -5.8580 ca         1 JG2       0.301000
      4 C3         -14.4340    37.2970    -7.1700 ca         1 JG2      -0.127000
      5 C4         -14.6730    36.4470    -8.2620 ca         1 JG2      -0.077000
      6 C5         -14.8790    35.0830    -8.0070 ca         1 JG2      -0.145000
      7 C6         -14.8410    34.6230    -6.6820 ca         1 JG2       0.337900
      8 C7         -14.1630    37.6660    -4.7030 cc         1 JG2       0.372000
      9 N8         -14.4160    37.4270    -3.4230 nd         1 JG2      -0.311000
     10 N9         -14.0620    38.5650    -2.7420 nd         1 JG2      -0.315000
     11 C10        -13.6170    39.4240    -3.6520 cc         1 JG2       0.405300
     12 O11        -13.6710    38.9170    -4.9150 os         1 JG2      -0.307000
     13 C12        -13.1280    40.8760    -3.4340 c3         1 JG2       0.393700
     14 C13        -14.1840    41.8960    -3.9450 c3         1 JG2      -0.145400
     15 O14        -11.8960    41.1060    -4.1060 oh         1 JG2      -0.641000
     16 C15        -13.8290    43.4080    -3.8210 c3         1 JG2      -0.072400
     17 C16        -14.9680    44.3600    -4.2610 c3         1 JG2      -0.075400
     18 C17        -15.3210    44.2910    -5.7660 c3         1 JG2      -0.077400
     19 C18        -16.3930    45.3220    -6.1800 c3         1 JG2      -0.074400
     20 C19        -16.7520    45.2550    -7.6800 c3         1 JG2      -0.030100
     21 C20        -17.8100    46.2820    -8.0610 ca         1 JG2      -0.081300
     22 C21        -17.4310    47.5700    -8.4850 ca         1 JG2      -0.107500
     23 C22        -18.4080    48.5190    -8.8330 ca         1 JG2      -0.109000
     24 C23        -19.7710    48.1850    -8.7570 ca         1 JG2      -0.111000
     25 C24        -20.1560    46.9020    -8.3330 ca         1 JG2      -0.109000
     26 C25        -19.1780    45.9530    -7.9850 ca         1 JG2      -0.107500
     27 HO1        -12.9290    42.1100    -1.9480 ho         1 JG2       0.463500
     28 H3         -14.2760    38.3590    -7.3400 ha         1 JG2       0.135000
     29 H4         -14.7000    36.8360    -9.2780 ha         1 JG2       0.125000
     30 H5         -15.0690    34.3860    -8.8200 ha         1 JG2       0.129000
     31 H6         -15.0000    33.5690    -6.4550 h4         1 JG2       0.030100
     32 H13        -14.3900    41.6640    -4.9970 hc         1 JG2       0.068700
     33 H13A       -15.1240    41.7110    -3.4080 hc         1 JG2       0.068700
     34 HO14       -11.9060    42.0400    -4.3950 ho         1 JG2       0.463500
     35 H15        -13.5840    43.6460    -2.7790 hc         1 JG2       0.044200
     36 H15A       -12.9350    43.6380    -4.4140 hc         1 JG2       0.044200
     37 H16        -15.8660    44.1490    -3.6670 hc         1 JG2       0.046200
     38 H16A       -14.6700    45.3880    -4.0170 hc         1 JG2       0.046200
     39 H17        -14.4120    44.4580    -6.3570 hc         1 JG2       0.036700
     40 H17A       -15.6860    43.2870    -6.0130 hc         1 JG2       0.036700
     41 H18        -17.3010    45.1580    -5.5870 hc         1 JG2       0.044200
     42 H18A       -16.0350    46.3320    -5.9430 hc         1 JG2       0.044200
     43 H19        -15.8440    45.4130    -8.2750 hc         1 JG2       0.044700
     44 H19A       -17.1040    44.2450    -7.9210 hc         1 JG2       0.044700
     45 H21        -16.3780    47.8370    -8.5440 ha         1 JG2       0.110000
     46 H22        -18.1090    49.5130    -9.1600 ha         1 JG2       0.112000
     47 H23        -20.5270    48.9190    -9.0260 ha         1 JG2       0.113000
     48 H24        -21.2100    46.6430    -8.2720 ha         1 JG2       0.112000
     49 H25        -19.4840    44.9630    -7.6550 ha         1 JG2       0.110000
@<TRIPOS>BOND
     1     1     3 ar  
     2     1     7 ar  
     3     2    13 1   
     4     2    27 1   
     5     3     4 ar  
     6     3     8 1   
     7     4     5 ar  
     8     4    28 1   
     9     5     6 ar  
    10     5    29 1   
    11     6     7 ar  
    12     6    30 1   
    13     7    31 1   
    14     8     9 2   
    15     8    12 1   
    16     9    10 1   
    17    10    11 2   
    18    11    12 1   
    19    11    13 1   
    20    13    14 1   
    21    13    15 1   
    22    14    16 1   
    23    14    32 1   
    24    14    33 1   
    25    15    34 1   
    26    16    17 1   
    27    16    35 1   
    28    16    36 1   
    29    17    18 1   
    30    17    37 1   
    31    17    38 1   
    32    18    19 1   
    33    18    39 1   
    34    18    40 1   
    35    19    20 1   
    36    19    41 1   
    37    19    42 1   
    38    20    21 1   
    39    20    43 1   
    40    20    44 1   
    41    21    22 ar  
    42    21    26 ar  
    43    22    23 ar  
    44    22    45 1   
    45    23    24 ar  
    46    23    46 1   
    47    24    25 ar  
    48    24    47 1   
    49    25    26 ar  
    50    25    48 1   
    51    26    49 1   
@<TRIPOS>SUBSTRUCTURE
     1 JG2         1 TEMP              0 ****  ****    0 ROOT
