@<TRIPOS>MOLECULE
JG2
   49    51     1     0     0
SMALL
abcg2


@<TRIPOS>ATOM
      1 N1         -14.9180    35.7520    -5.6760 nb         1 JG2      -0.620000
      2 O1         -12.8940    41.0780    -2.0300 oh         1 JG2      -0.641000
      3 C2         -14.4660    36.9960    -5.8870 ca         1 JG2       0.301000
      4 C3         -14.2350    37.5190    -7.1590 ca         1 JG2      -0.127000
      5 C4         -14.4870    36.7120    -8.2590 ca         1 JG2      -0.077000
      6 C5         -14.9570    35.4230    -8.0510 ca         1 JG2      -0.145000
      7 C6         -15.1540    34.9910    -6.7410 ca         1 JG2       0.337900
      8 C7         -14.2220    37.8060    -4.6950 cc         1 JG2       0.372000
      9 N8         -14.3860    37.5130    -3.4440 nd         1 JG2      -0.311000
     10 N9         -14.0070    38.6450    -2.7170 nd         1 JG2      -0.315000
     11 C10        -13.6410    39.5290    -3.5810 cc         1 JG2       0.405300
     12 O11        -13.7520    39.0740    -4.8520 os         1 JG2      -0.307000
     13 C12        -13.1500    40.9490    -3.3950 c3         1 JG2       0.393700
     14 C13        -14.2120    41.9300    -3.9140 c3         1 JG2      -0.145400
     15 O14        -11.9150    41.0920    -4.0860 oh         1 JG2      -0.641000
     16 C15        -13.8130    43.4020    -3.8110 c3         1 JG2      -0.072400
     17 C16        -14.9340    44.3490    -4.2530 c3         1 JG2      -0.075400
     18 C17        -15.3190    44.2250    -5.7260 c3         1 JG2      -0.077400
     19 C18        -16.3720    45.2450    -6.1520 c3         1 JG2      -0.074400
     20 C19        -16.7670    45.1050    -7.6290 c3         1 JG2      -0.030100
     21 C20        -17.8050    46.1110    -8.0510 ca         1 JG2      -0.081300
     22 C21        -17.4300    47.3820    -8.4920 ca         1 JG2      -0.107500
     23 C22        -18.3870    48.3280    -8.8450 ca         1 JG2      -0.109000
     24 C23        -19.7410    48.0170    -8.7650 ca         1 JG2      -0.111000
     25 C24        -20.1280    46.7540    -8.3280 ca         1 JG2      -0.109000
     26 C25        -19.1670    45.8120    -7.9740 ca         1 JG2      -0.107500
     27 HO1        -12.7150    42.0090    -1.8390 ho         1 JG2       0.463500
     28 H3         -13.8680    38.5280    -7.2800 ha         1 JG2       0.135000
     29 H4         -14.3190    37.0860    -9.2600 ha         1 JG2       0.125000
     30 H5         -15.1680    34.7610    -8.8790 ha         1 JG2       0.129000
     31 H6         -15.5180    33.9890    -6.5450 h4         1 JG2       0.030100
     32 H13        -14.4240    41.6680    -4.9520 hc         1 JG2       0.068700
     33 H13A       -15.1290    41.7490    -3.3460 hc         1 JG2       0.068700
     34 HO14       -12.0810    41.3790    -4.9940 ho         1 JG2       0.463500
     35 H15        -13.5480    43.6480    -2.7780 hc         1 JG2       0.044200
     36 H15A       -12.9230    43.5880    -4.4180 hc         1 JG2       0.044200
     37 H16        -15.8180    44.1770    -3.6300 hc         1 JG2       0.046200
     38 H16A       -14.6130    45.3770    -4.0570 hc         1 JG2       0.046200
     39 H17        -14.4230    44.3500    -6.3450 hc         1 JG2       0.036700
     40 H17A       -15.7000    43.2210    -5.9330 hc         1 JG2       0.036700
     41 H18        -17.2670    45.1300    -5.5310 hc         1 JG2       0.044200
     42 H18A       -15.9980    46.2580    -5.9750 hc         1 JG2       0.044200
     43 H19        -15.8720    45.2230    -8.2470 hc         1 JG2       0.044700
     44 H19A       -17.1450    44.0940    -7.8010 hc         1 JG2       0.044700
     45 H21        -16.3770    47.6300    -8.5600 ha         1 JG2       0.110000
     46 H22        -18.0750    49.3080    -9.1880 ha         1 JG2       0.112000
     47 H23        -20.4870    48.7510    -9.0440 ha         1 JG2       0.113000
     48 H24        -21.1800    46.5000    -8.2660 ha         1 JG2       0.112000
     49 H25        -19.4760    44.8280    -7.6390 ha         1 JG2       0.110000
@<TRIPOS>BOND
     1     1     3 ar  
     2     1     7 ar  
     3     2    13 1   
     4     2    27 1   
     5     3     4 ar  
     6     3     8 1   
     7     4     5 ar  
     8     4    28 1   
     9     5     6 ar  
    10     5    29 1   
    11     6     7 ar  
    12     6    30 1   
    13     7    31 1   
    14     8     9 2   
    15     8    12 1   
    16     9    10 1   
    17    10    11 2   
    18    11    12 1   
    19    11    13 1   
    20    13    14 1   
    21    13    15 1   
    22    14    16 1   
    23    14    32 1   
    24    14    33 1   
    25    15    34 1   
    26    16    17 1   
    27    16    35 1   
    28    16    36 1   
    29    17    18 1   
    30    17    37 1   
    31    17    38 1   
    32    18    19 1   
    33    18    39 1   
    34    18    40 1   
    35    19    20 1   
    36    19    41 1   
    37    19    42 1   
    38    20    21 1   
    39    20    43 1   
    40    20    44 1   
    41    21    22 ar  
    42    21    26 ar  
    43    22    23 ar  
    44    22    45 1   
    45    23    24 ar  
    46    23    46 1   
    47    24    25 ar  
    48    24    47 1   
    49    25    26 ar  
    50    25    48 1   
    51    26    49 1   
@<TRIPOS>SUBSTRUCTURE
     1 JG2         1 TEMP              0 ****  ****    0 ROOT
