@<TRIPOS>MOLECULE
JG3
   41    42     1     0     0
SMALL
No Charge or Current Charge


@<TRIPOS>ATOM
      1 C1          -0.1940    -0.9850    -0.0570 c3         1 JG3       0.145100
      2 N            1.4760    -0.0510     1.5700 n8         1 JG3      -0.879800
      3 O1          -0.2810    -2.0500     0.9070 oh         1 JG3      -0.607800
      4 C           -4.1590     1.2510     1.1120 c          1 JG3       0.903600
      5 N2          -2.6860    -0.3730    -0.4300 n3         1 JG3      -0.758600
      6 C3          -3.3100    -1.5830     0.1540 c5         1 JG3       0.193800
      7 C4          -1.3660     0.0330     0.1370 c3         1 JG3       0.184800
      8 C5           6.2360     0.7780    -0.1860 ca         1 JG3      -0.139000
      9 C6           4.6790    -0.9370     0.5630 ca         1 JG3      -0.130000
     10 C7           4.0300     0.6050    -1.2020 ca         1 JG3      -0.130000
     11 C8           1.2030    -0.3150     0.1330 c3         1 JG3       0.131500
     12 CA          -3.7790     0.6640    -0.3340 c5         1 JG3       0.060500
     13 C10          2.3550    -1.1640    -0.4630 c3         1 JG3      -0.073100
     14 C11         -4.9640    -0.1300    -0.9670 c5         1 JG3      -0.060400
     15 C12          5.9330    -0.3080     0.6520 ca         1 JG3      -0.129500
     16 C13          5.2840     1.2340    -1.1140 ca         1 JG3      -0.129500
     17 C14          3.7190    -0.4830    -0.3630 ca         1 JG3      -0.072300
     18 C15         -4.7110    -1.6080    -0.5250 c5         1 JG3      -0.080400
     19 H1          -0.2590    -1.3780    -1.0810 h1         1 JG3       0.065700
     20 H2           2.4730     0.1690     1.6690 hn         1 JG3       0.332300
     21 H3           0.3300    -1.7480     1.6190 ho         1 JG3       0.399000
     22 H4          -2.7430    -2.4980    -0.0660 h1         1 JG3       0.025700
     23 H5          -3.4010    -1.4960     1.2450 h1         1 JG3       0.025700
     24 H6          -1.4630     0.2500     1.2100 h1         1 JG3       0.054200
     25 H7          -1.0640     0.9740    -0.3420 h1         1 JG3       0.054200
     26 H10          3.2990     0.9630    -1.9240 ha         1 JG3       0.130500
     27 H11          1.2060     0.6480    -0.4000 h1         1 JG3       0.065700
     28 H12         -3.5400     1.5350    -0.9610 h1         1 JG3       0.043700
     29 H13          2.3810    -2.1430     0.0320 hc         1 JG3       0.057200
     30 H14          2.1330    -1.3690    -1.5170 hc         1 JG3       0.057200
     31 H15         -5.9460     0.2450    -0.6590 hc         1 JG3       0.032700
     32 H16         -4.9320    -0.0530    -2.0600 hc         1 JG3       0.032700
     33 H17          6.6700    -0.6620     1.3700 ha         1 JG3       0.124500
     34 H18          5.5170     2.0750    -1.7640 ha         1 JG3       0.124500
     35 H19         -4.7210    -2.2790    -1.3910 hc         1 JG3       0.020700
     36 H20         -5.4800    -1.9700     0.1680 hc         1 JG3       0.020700
     37 H21          1.0010     0.8110     1.8540 hn         1 JG3       0.332300
     38 OXT         -3.6070     2.2800     1.4940 o          1 JG3      -0.840800
     39 O           -5.0180     0.7210     1.8130 o          1 JG3      -0.840800
     40 H8           7.2070     1.2660    -0.1180 ha         1 JG3       0.123000
     41 H9           4.4530    -1.7770     1.2170 ha         1 JG3       0.130500
@<TRIPOS>BOND
     1     1     3 1   
     2     1     7 1   
     3     1    11 1   
     4     1    19 1   
     5     2    11 1   
     6     2    20 1   
     7     2    37 1   
     8     3    21 1   
     9     4    12 1   
    10     4    38 1   
    11     4    39 1   
    12     5     6 1   
    13     5     7 1   
    14     5    12 1   
    15     6    18 1   
    16     6    22 1   
    17     6    23 1   
    18     7    24 1   
    19     7    25 1   
    20     8    15 ar  
    21     8    16 ar  
    22     8    40 1   
    23     9    15 ar  
    24     9    17 ar  
    25     9    41 1   
    26    10    16 ar  
    27    10    17 ar  
    28    10    26 1   
    29    11    13 1   
    30    11    27 1   
    31    12    14 1   
    32    12    28 1   
    33    13    17 1   
    34    13    29 1   
    35    13    30 1   
    36    14    18 1   
    37    14    31 1   
    38    14    32 1   
    39    15    33 1   
    40    16    34 1   
    41    18    35 1   
    42    18    36 1   
@<TRIPOS>SUBSTRUCTURE
     1 JG3         1 TEMP              0 ****  ****    0 ROOT
