@<TRIPOS>MOLECULE
JG3
   41    42     1     0     0
SMALL
bcc


@<TRIPOS>ATOM
      1 C1          -0.1930    -0.9060    -0.2700 c3         1 JG3       0.145100
      2 N            1.4150    -0.4610     1.5210 n8         1 JG3      -0.879800
      3 O1          -0.2680    -2.2700     0.1030 oh         1 JG3      -0.607800
      4 C           -3.7680     1.7300     0.2370 c          1 JG3       0.903600
      5 N2          -2.6360    -0.5370    -0.1190 n3         1 JG3      -0.758600
      6 C3          -3.3520    -1.4410     0.7520 c5         1 JG3       0.193800
      7 C4          -1.3360    -0.0760     0.3090 c3         1 JG3       0.184800
      8 C5           6.0980     0.8780     0.1020 ca         1 JG3      -0.139000
      9 C6           4.5220    -0.9210     0.3710 ca         1 JG3      -0.130000
     10 C7           3.9960     0.9140    -1.0700 ca         1 JG3      -0.130000
     11 C8           1.1740    -0.3110     0.0920 c3         1 JG3       0.131500
     12 CA          -3.5780     0.4550    -0.6120 c5         1 JG3       0.060500
     13 C10          2.2840    -0.9070    -0.7930 c3         1 JG3      -0.073100
     14 C11         -4.9250    -0.3140    -0.6700 c5         1 JG3      -0.060400
     15 C12          5.7460    -0.3370     0.6730 ca         1 JG3      -0.129500
     16 C13          5.2180     1.5020    -0.7730 ca         1 JG3      -0.129500
     17 C14          3.6290    -0.3070    -0.5040 ca         1 JG3      -0.072300
     18 C15         -4.6410    -1.6770    -0.0210 c5         1 JG3      -0.080400
     19 H1          -0.2930    -0.8940    -1.3610 h1         1 JG3       0.065700
     20 H2           1.7660    -1.3900     1.7210 hn         1 JG3       0.332300
     21 H3          -0.3280    -2.3090     1.0640 ho         1 JG3       0.399000
     22 H4          -2.7950    -2.3650     0.9150 h1         1 JG3       0.025700
     23 H5          -3.5630    -1.0040     1.7400 h1         1 JG3       0.025700
     24 H6          -1.2460    -0.0450     1.4030 h1         1 JG3       0.054200
     25 H7          -1.1850     0.9520    -0.0300 h1         1 JG3       0.054200
     26 H10          3.3170     1.4090    -1.7550 ha         1 JG3       0.130500
     27 H11          1.1200     0.7640    -0.1160 h1         1 JG3       0.065700
     28 H12         -3.2770     0.7680    -1.6190 h1         1 JG3       0.043700
     29 H13          2.3160    -1.9890    -0.6350 hc         1 JG3       0.057200
     30 H14          2.0260    -0.7460    -1.8440 hc         1 JG3       0.057200
     31 H15         -5.7040     0.2170    -0.1220 hc         1 JG3       0.032700
     32 H16         -5.2850    -0.4210    -1.6940 hc         1 JG3       0.032700
     33 H17          6.4250    -0.8330     1.3550 ha         1 JG3       0.124500
     34 H18          5.4830     2.4490    -1.2260 ha         1 JG3       0.124500
     35 H19         -4.4780    -2.4400    -0.7850 hc         1 JG3       0.020700
     36 H20         -5.4580    -2.0210     0.6140 hc         1 JG3       0.020700
     37 H21          2.1450     0.1730     1.8180 hn         1 JG3       0.332300
     38 OXT         -4.2780     2.6990    -0.3660 o          1 JG3      -0.840800
     39 O           -3.4500     1.6940     1.4420 o          1 JG3      -0.840800
     40 H8           7.0530     1.3340     0.3340 ha         1 JG3       0.123000
     41 H9           4.2620    -1.8750     0.8150 ha         1 JG3       0.130500
@<TRIPOS>BOND
     1     1     3 1   
     2     1     7 1   
     3     1    11 1   
     4     1    19 1   
     5     2    11 1   
     6     2    20 1   
     7     2    37 1   
     8     3    21 1   
     9     4    12 1   
    10     4    38 1   
    11     4    39 1   
    12     5     6 1   
    13     5     7 1   
    14     5    12 1   
    15     6    18 1   
    16     6    22 1   
    17     6    23 1   
    18     7    24 1   
    19     7    25 1   
    20     8    15 ar  
    21     8    16 ar  
    22     8    40 1   
    23     9    15 ar  
    24     9    17 ar  
    25     9    41 1   
    26    10    16 ar  
    27    10    17 ar  
    28    10    26 1   
    29    11    13 1   
    30    11    27 1   
    31    12    14 1   
    32    12    28 1   
    33    13    17 1   
    34    13    29 1   
    35    13    30 1   
    36    14    18 1   
    37    14    31 1   
    38    14    32 1   
    39    15    33 1   
    40    16    34 1   
    41    18    35 1   
    42    18    36 1   
@<TRIPOS>SUBSTRUCTURE
     1 JG3         1 TEMP              0 ****  ****    0 ROOT
