@<TRIPOS>MOLECULE
JG4
   16    17     1     0     0
SMALL
No Charge or Current Charge


@<TRIPOS>ATOM
      1 C01          2.5380     1.2420    -0.0010 cc         1 JG4      -0.132000
      2 C02          1.1330     1.4220    -0.0140 cc         1 JG4      -0.087000
      3 C03          0.4490     0.2320    -0.0200 cd         1 JG4      -0.251500
      4 S04          1.5310    -1.1680    -0.0110 ss         1 JG4       0.168000
      5 C05          2.9300    -0.0740     0.0020 cd         1 JG4      -0.227000
      6 C06         -0.9850     0.1650    -0.0330 cd         1 JG4       0.481000
      7 N07         -1.6820    -1.0230    -0.0400 na         1 JG4      -0.294500
      8 C08         -3.0310    -0.7000    -0.0520 cd         1 JG4      -0.228000
      9 C09         -3.0680     0.6700    -0.0520 cc         1 JG4       0.235900
     10 N10         -1.8080     1.2010    -0.0400 nc         1 JG4      -0.662000
     11 H011         3.2290     2.0810     0.0050 ha         1 JG4       0.139000
     12 H021         0.6700     2.4060    -0.0180 ha         1 JG4       0.156000
     13 H051         3.9360    -0.4760     0.0110 h4         1 JG4       0.152000
     14 H071        -1.2680    -1.9460    -0.0370 hn         1 JG4       0.353000
     15 H081        -3.8330    -1.4300    -0.0590 h4         1 JG4       0.158000
     16 H091        -3.9360     1.3170    -0.0590 h4         1 JG4       0.039100
@<TRIPOS>BOND
     1     1     2 1   
     2     1     5 2   
     3     1    11 1   
     4     2     3 2   
     5     2    12 1   
     6     3     4 1   
     7     3     6 1   
     8     4     5 1   
     9     5    13 1   
    10     6     7 1   
    11     6    10 2   
    12     7     8 1   
    13     7    14 1   
    14     8     9 2   
    15     8    15 1   
    16     9    10 1   
    17     9    16 1   
@<TRIPOS>SUBSTRUCTURE
     1 JG4         1 TEMP              0 ****  ****    0 ROOT
