@<TRIPOS>MOLECULE
JG4
   16    17     1     0     0
SMALL
abcg2


@<TRIPOS>ATOM
      1 C01          2.5640     1.2340    -0.0250 cc         1 JG4      -0.132000
      2 C02          1.1650     1.4590    -0.0500 cc         1 JG4      -0.087000
      3 C03          0.4410     0.2990    -0.0060 cd         1 JG4      -0.251500
      4 S04          1.4840    -1.0730     0.0720 ss         1 JG4       0.168000
      5 C05          2.8850    -0.0880     0.0390 cd         1 JG4      -0.227000
      6 C06         -1.0010     0.1800    -0.0160 cd         1 JG4       0.481000
      7 N07         -1.6720    -0.9950    -0.0760 na         1 JG4      -0.294500
      8 C08         -3.0060    -0.7140    -0.0710 cd         1 JG4      -0.228000
      9 C09         -3.0840     0.6490    -0.0050 cc         1 JG4       0.235900
     10 N10         -1.8360     1.1940     0.0290 nc         1 JG4      -0.662000
     11 H011         3.3020     2.0230    -0.0520 ha         1 JG4       0.139000
     12 H021         0.7080     2.4370    -0.1030 ha         1 JG4       0.156000
     13 H051         3.8640    -0.5400     0.0700 h4         1 JG4       0.152000
     14 H071        -1.2790    -1.9220    -0.1320 hn         1 JG4       0.353000
     15 H081        -3.7560    -1.4840    -0.1140 h4         1 JG4       0.158000
     16 H091        -3.9730     1.2600     0.0200 h4         1 JG4       0.039100
@<TRIPOS>BOND
     1     1     2 1   
     2     1     5 2   
     3     1    11 1   
     4     2     3 2   
     5     2    12 1   
     6     3     4 1   
     7     3     6 1   
     8     4     5 1   
     9     5    13 1   
    10     6     7 1   
    11     6    10 2   
    12     7     8 1   
    13     7    14 1   
    14     8     9 2   
    15     8    15 1   
    16     9    10 1   
    17     9    16 1   
@<TRIPOS>SUBSTRUCTURE
     1 JG4         1 TEMP              0 ****  ****    0 ROOT
