@<TRIPOS>MOLECULE
JG5
  168   168     1     0     0
SMALL
bcc


@<TRIPOS>ATOM
      1 N12        -20.0570    12.5770    -0.5460 na         1 JG5       0.157900
      2 C15        -13.6040    -0.1630     1.0730 c3         1 JG5      -0.075400
      3 C17        -12.4890    -2.4470     1.1550 c3         1 JG5      -0.075400
      4 C20        -11.1020    -5.9570     2.0760 c3         1 JG5      -0.159400
      5 C21        -10.2970    -7.0130     1.3670 c          1 JG5       0.697100
      6 C28         -6.6610    -9.9420     0.4900 c3         1 JG5      -0.040400
      7 C01        -14.7160     2.1240     0.9890 c3         1 JG5      -0.074400
      8 C02        -15.5560     3.1590     1.7270 c3         1 JG5      -0.073400
      9 C03        -15.8280     4.4120     0.9050 c3         1 JG5      -0.074400
     10 C04        -16.6690     5.4450     1.6440 c3         1 JG5      -0.074400
     11 C05        -16.9430     6.6980     0.8210 c3         1 JG5      -0.074400
     12 C06        -17.7870     7.7270     1.5630 c3         1 JG5      -0.074400
     13 C07        -18.0640     8.9750     0.7360 c3         1 JG5      -0.074400
     14 C08        -18.9180     9.9910     1.4980 c3         1 JG5      -0.095700
     15 C09        -19.1950    11.2090     0.6950 cc         1 JG5       0.502300
     16 C14        -14.4440     0.8720     1.8110 c3         1 JG5      -0.073400
     17 C16        -13.3290    -1.4140     1.8960 c3         1 JG5      -0.073400
     18 C18        -12.2100    -3.6970     1.9810 c3         1 JG5      -0.075400
     19 C19        -11.3730    -4.7240     1.2290 c3         1 JG5      -0.067400
     20 C27         -7.4590    -8.8130     1.1310 c3         1 JG5      -0.205600
     21 C29         -5.2570    -9.4550     0.1530 c3         1 JG5      -0.156400
     22 C30         -4.4860   -10.4620    -0.6760 c          1 JG5       0.663100
     23 C33         -2.2540   -11.3770    -1.1280 c3         1 JG5       0.099000
     24 C34         -1.5830   -10.5720    -2.2230 c3         1 JG5       0.113400
     25 C36         -0.3570    -8.5950    -2.5480 c3         1 JG5       0.140400
     26 C37          0.4590    -7.5550    -1.8240 c3         1 JG5       0.137400
     27 C39          2.4330    -7.2480    -0.6250 c3         1 JG5       0.033400
     28 C40          3.7290    -7.9380    -0.2300 c          1 JG5       0.676100
     29 C43          5.8500    -7.5770     0.9260 c3         1 JG5      -0.045300
     30 C44          6.8940    -6.4640     0.9690 c3         1 JG5      -0.061400
     31 C45          7.3080    -5.9830    -0.4160 c3         1 JG5      -0.163400
     32 C46          8.4090    -4.9440    -0.3720 c          1 JG5       0.670100
     33 C49          9.3320    -3.0030    -1.5470 c3         1 JG5      -0.044300
     34 C50          8.7380    -1.7500    -2.1850 c3         1 JG5      -0.063400
     35 C51          7.8500    -0.9650    -1.2250 c3         1 JG5      -0.154400
     36 C52          7.0880     0.1450    -1.9140 c          1 JG5       0.666100
     37 C55          6.4670     2.5150    -1.8300 c3         1 JG5       0.107000
     38 C56          6.3700     3.5860    -0.7690 c3         1 JG5       0.121400
     39 C58          7.6860     4.9360     0.6310 c3         1 JG5       0.143400
     40 C59          9.0670     5.5280     0.7560 c3         1 JG5       0.135400
     41 C61         10.6060     6.8800    -0.3630 c3         1 JG5       0.042400
     42 C62         10.7940     7.6970    -1.6310 c          1 JG5       0.677100
     43 C65         12.3540     9.1870    -2.7700 c3         1 JG5      -0.042300
     44 C66         13.2090    10.3890    -2.3780 c3         1 JG5      -0.070400
     45 C67         12.4600    11.4450    -1.5750 c3         1 JG5      -0.075400
     46 C68         13.3150    12.6760    -1.3030 c3         1 JG5      -0.096400
     47 C69         12.5650    13.7190    -0.4910 c3         1 JG5       0.097000
     48 C71         12.9400    16.0110     0.3000 c          1 JG5       0.661100
     49 C73         13.9620    17.1030     0.4970 c3         1 JG5      -0.179100
     50 C78         13.1410     8.2120    -3.6870 c          1 JG5       0.923600
     51 C81         10.4420    -3.6230    -2.4420 c          1 JG5       0.925600
     52 C84          5.5700    -8.1390     2.3470 c          1 JG5       0.925600
     53 N10        -18.3290    12.2270     0.5370 nc         1 JG5      -0.382000
     54 N11        -18.8990    13.0790    -0.2520 nd         1 JG5      -0.174800
     55 N13        -20.3020    11.4190     0.0080 nd         1 JG5      -0.525800
     56 N23         -9.8440    -8.0150     2.1980 ns         1 JG5      -0.664300
     57 N32         -3.1890   -10.5930    -0.3540 ns         1 JG5      -0.556900
     58 N42          4.6540    -7.1040     0.2690 ns         1 JG5      -0.518900
     59 N48          8.2730    -3.9360    -1.2480 ns         1 JG5      -0.536900
     60 N54          7.1520     1.3470    -1.3210 ns         1 JG5      -0.578900
     61 N64         11.8360     8.5390    -1.5870 ns         1 JG5      -0.537900
     62 N70         13.3990    14.8760    -0.2460 ns         1 JG5      -0.567900
     63 O22        -10.0520    -7.0150     0.1820 o          1 JG5      -0.545100
     64 O25         -9.7700    -9.9600     0.5410 o          1 JG5      -0.594300
     65 O26         -8.8910   -10.2010     2.8720 o          1 JG5      -0.594300
     66 O31         -5.0160   -11.0880    -1.5840 o          1 JG5      -0.623100
     67 O35         -0.8260    -9.5480    -1.6270 os         1 JG5      -0.399600
     68 O38          1.6500    -8.1390    -1.3550 os         1 JG5      -0.362600
     69 O41          3.9000    -9.1360    -0.3820 o          1 JG5      -0.601100
     70 O47          9.3420    -5.0210     0.4180 o          1 JG5      -0.630100
     71 O53          6.4320    -0.0530    -2.9300 o          1 JG5      -0.634100
     72 O57          7.6660     4.0090    -0.4260 os         1 JG5      -0.387600
     73 O60          9.3320     6.3170    -0.3780 os         1 JG5      -0.364600
     74 O63         10.0430     7.5890    -2.5860 o          1 JG5      -0.582100
     75 O72         11.7650    16.1610     0.6160 o          1 JG5      -0.622100
     76 O79         13.5350     8.7060    -4.7630 o          1 JG5      -0.824300
     77 O80         13.3160     7.0510    -3.2830 o          1 JG5      -0.824300
     78 O85          6.5590    -8.6440     2.9150 o          1 JG5      -0.838300
     79 O86          4.4140    -8.0420     2.7900 o          1 JG5      -0.838300
     80 S24         -9.0560    -9.3990     1.6710 s6         1 JG5       1.233600
     81 H1         -20.7120    13.0480    -1.1560 hn         1 JG5       0.352700
     82 H3         -14.1110    -0.4430     0.1430 hc         1 JG5       0.039700
     83 H2         -12.6520     0.2900     0.7720 hc         1 JG5       0.039700
     84 H4         -12.9990    -2.7300     0.2280 hc         1 JG5       0.042200
     85 H5         -11.5390    -1.9940     0.8520 hc         1 JG5       0.042200
     86 H7         -12.0450    -6.4200     2.3900 hc         1 JG5       0.063700
     87 H6         -10.5880    -5.6820     3.0020 hc         1 JG5       0.063700
     88 H8          -6.5990   -10.7970     1.1660 hc         1 JG5       0.072200
     89 H9          -7.1640   -10.2740    -0.4180 hc         1 JG5       0.072200
     90 H11        -15.2220     1.8450     0.0580 hc         1 JG5       0.038700
     91 H10        -13.7640     2.5770     0.6900 hc         1 JG5       0.038700
     92 H12        -16.5090     2.7060     2.0250 hc         1 JG5       0.036200
     93 H13        -15.0510     3.4370     2.6580 hc         1 JG5       0.036200
     94 H14        -14.8760     4.8650     0.6070 hc         1 JG5       0.038700
     95 H15        -16.3340     4.1330    -0.0260 hc         1 JG5       0.038700
     96 H16        -17.6210     4.9920     1.9420 hc         1 JG5       0.036700
     97 H17        -16.1640     5.7240     2.5750 hc         1 JG5       0.036700
     98 H19        -15.9920     7.1530     0.5240 hc         1 JG5       0.040200
     99 H18        -17.4490     6.4190    -0.1100 hc         1 JG5       0.040200
    100 H20        -18.7370     7.2710     1.8630 hc         1 JG5       0.038200
    101 H21        -17.2800     8.0110     2.4920 hc         1 JG5       0.038200
    102 H23        -17.1190     9.4410     0.4410 hc         1 JG5       0.049200
    103 H22        -18.5750     8.6970    -0.1910 hc         1 JG5       0.049200
    104 H25        -19.8660     9.5330     1.7870 hc         1 JG5       0.064200
    105 H24        -18.4070    10.2810     2.4180 hc         1 JG5       0.064200
    106 H26        -15.3960     0.4190     2.1110 hc         1 JG5       0.035700
    107 H27        -13.9370     1.1510     2.7420 hc         1 JG5       0.035700
    108 H28        -12.8200    -1.1340     2.8250 hc         1 JG5       0.035700
    109 H29        -14.2800    -1.8680     2.1970 hc         1 JG5       0.035700
    110 H30        -11.6980    -3.4150     2.9070 hc         1 JG5       0.035700
    111 H31        -13.1590    -4.1510     2.2860 hc         1 JG5       0.035700
    112 H32        -10.4270    -4.2700     0.9240 hc         1 JG5       0.058200
    113 H33        -11.8910    -5.0110     0.3110 hc         1 JG5       0.058200
    114 H35         -6.9700    -8.4080     2.0180 h1         1 JG5       0.104200
    115 H34         -7.6280    -8.0030     0.4210 h1         1 JG5       0.104200
    116 H36         -5.3190    -8.5380    -0.4420 hc         1 JG5       0.061700
    117 H37         -4.7160    -9.1950     1.0650 hc         1 JG5       0.061700
    118 H39         -2.7760   -12.2210    -1.5770 h1         1 JG5       0.067700
    119 H38         -1.5040   -11.7880    -0.4510 h1         1 JG5       0.067700
    120 H40         -0.9500   -11.2350    -2.8290 h1         1 JG5       0.028700
    121 H41         -2.3480   -10.1550    -2.8930 h1         1 JG5       0.028700
    122 H42         -1.1940    -8.0900    -3.0490 h1         1 JG5       0.023700
    123 H43          0.2500    -9.0640    -3.3350 h1         1 JG5       0.023700
    124 H44          0.6700    -6.7340    -2.5230 h1         1 JG5       0.020700
    125 H45         -0.1270    -7.1290    -0.9980 h1         1 JG5       0.020700
    126 H46          1.9220    -6.9150     0.2920 h1         1 JG5       0.028700
    127 H47          2.6630    -6.3390    -1.1980 h1         1 JG5       0.028700
    128 H48          6.2570    -8.3950     0.3240 h1         1 JG5       0.065700
    129 H49          6.5110    -5.6200     1.5560 hc         1 JG5       0.057200
    130 H50          7.7660    -6.8400     1.5010 hc         1 JG5       0.057200
    131 H52          7.6870    -6.8320    -0.9960 hc         1 JG5       0.046200
    132 H51          6.4460    -5.6020    -0.9680 hc         1 JG5       0.046200
    133 H53          9.8040    -2.7160    -0.6020 h1         1 JG5       0.059700
    134 H55          9.5580    -1.1170    -2.5250 hc         1 JG5       0.058700
    135 H54          8.1690    -2.0300    -3.0770 hc         1 JG5       0.058700
    136 H57          7.1060    -1.6310    -0.7760 hc         1 JG5       0.053200
    137 H56          8.4520    -0.5770    -0.4000 hc         1 JG5       0.053200
    138 H59          5.4570     2.2400    -2.1340 h1         1 JG5       0.055700
    139 H58          6.9720     2.9110    -2.7170 h1         1 JG5       0.055700
    140 H61          5.7750     4.4210    -1.1620 h1         1 JG5       0.018200
    141 H60          5.8350     3.1930     0.1070 h1         1 JG5       0.018200
    142 H63          7.4230     4.4570     1.5830 h1         1 JG5       0.019200
    143 H62          6.9560     5.7400     0.4640 h1         1 JG5       0.019200
    144 H64          9.1030     6.1270     1.6760 h1         1 JG5       0.022700
    145 H65          9.8140     4.7290     0.8650 h1         1 JG5       0.022700
    146 H67         11.3910     6.1090    -0.3310 h1         1 JG5       0.028200
    147 H66         10.7620     7.5190     0.5180 h1         1 JG5       0.028200
    148 H68         11.4990     9.5590    -3.3430 h1         1 JG5       0.062700
    149 H70         14.0870    10.0530    -1.8140 hc         1 JG5       0.045200
    150 H69         13.5910    10.8350    -3.2980 hc         1 JG5       0.045200
    151 H72         11.5570    11.7400    -2.1210 hc         1 JG5       0.038700
    152 H71         12.1170    11.0250    -0.6250 hc         1 JG5       0.038700
    153 H73         14.2230    12.3790    -0.7670 hc         1 JG5       0.037200
    154 H74         13.6390    13.1150    -2.2510 hc         1 JG5       0.037200
    155 H76         11.6640    14.0270    -1.0280 h1         1 JG5       0.050700
    156 H75         12.2330    13.2820     0.4570 h1         1 JG5       0.050700
    157 H77         14.0190    17.3600     1.5550 hc         1 JG5       0.051700
    158 H78         14.9600    16.8340     0.1540 hc         1 JG5       0.051700
    159 H79         13.6430    17.9980    -0.0360 hc         1 JG5       0.051700
    160 H83        -10.0140    -7.9660     3.1960 hn         1 JG5       0.344500
    161 H84         -2.8120   -10.0120     0.3770 hn         1 JG5       0.326500
    162 H85          4.3620    -6.1600     0.4760 hn         1 JG5       0.287500
    163 H86          7.5440    -4.0290    -1.9380 hn         1 JG5       0.287500
    164 H87          7.7870     1.4720    -0.5490 hn         1 JG5       0.323500
    165 H88         12.4630     8.4610    -0.8000 hn         1 JG5       0.283500
    166 H89         14.3830    14.7990    -0.4460 hn         1 JG5       0.308500
    167 O82         11.4120    -2.8730    -2.6690 o          1 JG5      -0.832800
    168 O83         10.2770    -4.7870    -2.8440 o          1 JG5      -0.832800
@<TRIPOS>BOND
     1     1    54 1   
     2     1    55 1   
     3     1    81 1   
     4     2    16 1   
     5     2    17 1   
     6     2    82 1   
     7     2    83 1   
     8     3    17 1   
     9     3    18 1   
    10     3    84 1   
    11     3    85 1   
    12     4     5 1   
    13     4    19 1   
    14     4    86 1   
    15     4    87 1   
    16     5    56 1   
    17     5    63 2   
    18     6    20 1   
    19     6    21 1   
    20     6    88 1   
    21     6    89 1   
    22     7     8 1   
    23     7    16 1   
    24     7    90 1   
    25     7    91 1   
    26     8     9 1   
    27     8    92 1   
    28     8    93 1   
    29     9    10 1   
    30     9    94 1   
    31     9    95 1   
    32    10    11 1   
    33    10    96 1   
    34    10    97 1   
    35    11    12 1   
    36    11    98 1   
    37    11    99 1   
    38    12    13 1   
    39    12   100 1   
    40    12   101 1   
    41    13    14 1   
    42    13   102 1   
    43    13   103 1   
    44    14    15 1   
    45    14   104 1   
    46    14   105 1   
    47    15    53 1   
    48    15    55 2   
    49    16   106 1   
    50    16   107 1   
    51    17   108 1   
    52    17   109 1   
    53    18    19 1   
    54    18   110 1   
    55    18   111 1   
    56    19   112 1   
    57    19   113 1   
    58    20    80 1   
    59    20   114 1   
    60    20   115 1   
    61    21    22 1   
    62    21   116 1   
    63    21   117 1   
    64    22    57 1   
    65    22    66 2   
    66    23    24 1   
    67    23    57 1   
    68    23   118 1   
    69    23   119 1   
    70    24    67 1   
    71    24   120 1   
    72    24   121 1   
    73    25    26 1   
    74    25    67 1   
    75    25   122 1   
    76    25   123 1   
    77    26    68 1   
    78    26   124 1   
    79    26   125 1   
    80    27    28 1   
    81    27    68 1   
    82    27   126 1   
    83    27   127 1   
    84    28    58 1   
    85    28    69 2   
    86    29    30 1   
    87    29    52 1   
    88    29    58 1   
    89    29   128 1   
    90    30    31 1   
    91    30   129 1   
    92    30   130 1   
    93    31    32 1   
    94    31   131 1   
    95    31   132 1   
    96    32    59 1   
    97    32    70 2   
    98    33    34 1   
    99    33    51 1   
   100    33    59 1   
   101    33   133 1   
   102    34    35 1   
   103    34   134 1   
   104    34   135 1   
   105    35    36 1   
   106    35   136 1   
   107    35   137 1   
   108    36    60 1   
   109    36    71 2   
   110    37    38 1   
   111    37    60 1   
   112    37   138 1   
   113    37   139 1   
   114    38    72 1   
   115    38   140 1   
   116    38   141 1   
   117    39    40 1   
   118    39    72 1   
   119    39   142 1   
   120    39   143 1   
   121    40    73 1   
   122    40   144 1   
   123    40   145 1   
   124    41    42 1   
   125    41    73 1   
   126    41   146 1   
   127    41   147 1   
   128    42    61 1   
   129    42    74 2   
   130    43    44 1   
   131    43    50 1   
   132    43    61 1   
   133    43   148 1   
   134    44    45 1   
   135    44   149 1   
   136    44   150 1   
   137    45    46 1   
   138    45   151 1   
   139    45   152 1   
   140    46    47 1   
   141    46   153 1   
   142    46   154 1   
   143    47    62 1   
   144    47   155 1   
   145    47   156 1   
   146    48    49 1   
   147    48    62 1   
   148    48    75 2   
   149    49   157 1   
   150    49   158 1   
   151    49   159 1   
   152    50    76 1   
   153    50    77 1   
   154    51   167 1   
   155    51   168 1   
   156    52    78 1   
   157    52    79 1   
   158    53    54 2   
   159    56    80 1   
   160    56   160 1   
   161    57   161 1   
   162    58   162 1   
   163    59   163 1   
   164    60   164 1   
   165    61   165 1   
   166    62   166 1   
   167    64    80 2   
   168    65    80 2   
@<TRIPOS>SUBSTRUCTURE
     1 JG5         1 TEMP              0 ****  ****    0 ROOT
