@<TRIPOS>MOLECULE
JG5
  168   168     1     0     0
SMALL
No Charge or Current Charge


@<TRIPOS>ATOM
      1 N12        -16.8780    12.3820    -0.3250 na         1 JG5       0.107600
      2 C15        -13.3750    -1.6350     1.3770 c3         1 JG5      -0.075400
      3 C17        -12.6490    -4.1040     1.4760 c3         1 JG5      -0.075400
      4 C20        -12.2100    -7.9830     2.1400 c3         1 JG5      -0.159400
      5 C21        -11.1700    -9.0030     1.6670 c          1 JG5       0.630100
      6 C28         -6.5470   -10.5460     1.2430 c3         1 JG5      -0.040400
      7 C01        -14.0950     0.8350     1.2740 c3         1 JG5      -0.074400
      8 C02        -15.1220     1.8990     1.7200 c3         1 JG5      -0.073400
      9 C03        -14.8120     3.3070     1.1640 c3         1 JG5      -0.074400
     10 C04        -15.8400     4.3720     1.6050 c3         1 JG5      -0.074400
     11 C05        -15.5280     5.7780     1.0480 c3         1 JG5      -0.074400
     12 C06        -16.5560     6.8440     1.4870 c3         1 JG5      -0.074400
     13 C07        -16.2450     8.2490     0.9270 c3         1 JG5      -0.074400
     14 C08        -17.2740     9.3180     1.3630 c3         1 JG5      -0.095700
     15 C09        -16.9750    10.6890     0.8180 cc         1 JG5       0.502300
     16 C14        -14.4010    -0.5730     1.8300 c3         1 JG5      -0.073400
     17 C16        -13.6760    -3.0440     1.9330 c3         1 JG5      -0.073400
     18 C18        -12.9450    -5.5130     2.0340 c3         1 JG5      -0.075400
     19 C19        -11.9170    -6.5710     1.5760 c3         1 JG5      -0.067400
     20 C27         -7.8210    -9.6950     1.4800 c3         1 JG5      -0.316400
     21 C29         -5.5130    -9.8090     0.3620 c3         1 JG5      -0.156400
     22 C30         -4.2510   -10.6520     0.1440 c          1 JG5       0.596100
     23 C33         -1.7940   -10.8090     0.6870 c3         1 JG5       0.099000
     24 C34         -1.1020   -10.4650    -0.6530 c3         1 JG5       0.136600
     25 C36         -0.3800    -8.5650    -1.9710 c3         1 JG5       0.163600
     26 C37         -0.3190    -7.0190    -1.9430 c3         1 JG5       0.160600
     27 C39          0.8410    -5.1680    -0.8830 c3         1 JG5       0.056600
     28 C40          2.0050    -4.7500     0.0560 c          1 JG5       0.609100
     29 C43          3.1670    -2.7010     1.0360 c3         1 JG5      -0.045300
     30 C44          4.3340    -2.1890     0.1510 c3         1 JG5      -0.061400
     31 C45          5.1370    -3.3080    -0.5590 c3         1 JG5      -0.163400
     32 C46          6.2770    -2.7270    -1.4040 c          1 JG5       0.603100
     33 C49          6.9940    -2.2660    -3.8060 c3         1 JG5      -0.044300
     34 C50          6.5960    -0.8390    -4.2680 c3         1 JG5      -0.063400
     35 C51          6.7020     0.2450    -3.1670 c3         1 JG5      -0.154400
     36 C52          6.3510     1.6320    -3.7150 c          1 JG5       0.599100
     37 C55          7.3210     3.8600    -4.3820 c3         1 JG5       0.107000
     38 C56          6.9540     4.8420    -3.2460 c3         1 JG5       0.144600
     39 C58          7.8110     5.7110    -1.1540 c3         1 JG5       0.166600
     40 C59          9.0570     5.6610    -0.2370 c3         1 JG5       0.158600
     41 C61         11.3760     6.3820    -0.1260 c3         1 JG5       0.065600
     42 C62         12.5110     7.1630    -0.8430 c          1 JG5       0.610100
     43 C65         14.9360     7.9100    -0.5690 c3         1 JG5      -0.042300
     44 C66         15.0480     9.3310     0.0460 c3         1 JG5      -0.070400
     45 C67         13.9230    10.3050    -0.3790 c3         1 JG5      -0.075400
     46 C68         14.1110    11.7290     0.1890 c3         1 JG5      -0.096400
     47 C69         12.9870    12.6960    -0.2340 c3         1 JG5       0.097000
     48 C71         14.0340    14.9870    -0.1610 c          1 JG5       0.594100
     49 C73         14.0630    16.2890     0.6300 c3         1 JG5      -0.179100
     50 C78         16.1960     7.0500    -0.2380 c          1 JG5       0.713000
     51 C81          7.0660    -3.2540    -5.0120 c          1 JG5       0.715000
     52 C84          2.5360    -1.5420     1.8700 c          1 JG5       0.715000
     53 N10        -16.1750    11.5520     1.5040 nc         1 JG5      -0.382000
     54 N11        -16.1070    12.6340     0.7830 nd         1 JG5      -0.174800
     55 N13        -17.4480    11.1330    -0.3240 nd         1 JG5      -0.525800
     56 N23        -10.2730    -9.3800     2.6150 ns         1 JG5      -0.597300
     57 N32         -3.1330   -10.2160     0.8160 ns         1 JG5      -0.489900
     58 N42          2.1220    -3.3840     0.2330 ns         1 JG5      -0.451900
     59 N48          6.0720    -2.7860    -2.7660 ns         1 JG5      -0.469900
     60 N54          7.4240     2.4660    -3.9270 ns         1 JG5      -0.511900
     61 N64         13.7000     7.2090    -0.1370 ns         1 JG5      -0.470900
     62 N70         13.1680    14.0350     0.3300 ns         1 JG5      -0.500900
     63 O22        -11.1630    -9.4430     0.5290 o          1 JG5      -0.545100
     64 O25         -9.5830   -11.6720     1.7370 o          1 JG5      -0.523500
     65 O26         -8.5160   -10.7140     3.8350 o          1 JG5      -0.523500
     66 O31         -4.2320   -11.6280    -0.5930 o          1 JG5      -0.623100
     67 O35         -0.9740    -9.0350    -0.7450 os         1 JG5      -0.446000
     68 O38          0.7110    -6.6020    -1.0250 os         1 JG5      -0.409000
     69 O41          2.7630    -5.5460     0.6020 o          1 JG5      -0.601100
     70 O47          7.3010    -2.2760    -0.9080 o          1 JG5      -0.630100
     71 O53          5.2000     1.9840    -3.9290 o          1 JG5      -0.634100
     72 O57          8.0260     4.8460    -2.2860 os         1 JG5      -0.434000
     73 O60         10.1400     6.3620    -0.8800 os         1 JG5      -0.411000
     74 O63         12.3850     7.6980    -1.9400 o          1 JG5      -0.582100
     75 O72         14.7220    14.8060    -1.1550 o          1 JG5      -0.622100
     76 O79         16.9550     6.7620    -1.1530 o          1 JG5      -0.719000
     77 O80         16.3310     6.6250     0.9030 o          1 JG5      -0.719000
     78 O85          2.6850    -1.5580     3.0840 o          1 JG5      -0.733000
     79 O86          1.8480    -0.7120     1.2900 o          1 JG5      -0.733000
     80 S24         -9.0650   -10.5250     2.4890 s6         1 JG5       1.202800
     81 H1         -17.0060    13.0670    -1.0710 hn         1 JG5       0.403000
     82 H3         -13.3600    -1.6760     0.2800 hc         1 JG5       0.039700
     83 H2         -12.3720    -1.3270     1.6990 hc         1 JG5       0.039700
     84 H4         -12.6390    -4.1460     0.3790 hc         1 JG5       0.042200
     85 H5         -11.6460    -3.7940     1.7940 hc         1 JG5       0.042200
     86 H7         -13.1970    -8.3010     1.7840 hc         1 JG5       0.063700
     87 H6         -12.2110    -7.9260     3.2350 hc         1 JG5       0.063700
     88 H8          -6.0860   -10.7980     2.2070 hc         1 JG5       0.072200
     89 H9          -6.8210   -11.4940     0.7610 hc         1 JG5       0.072200
     90 H11        -14.0750     0.7930     0.1770 hc         1 JG5       0.038700
     91 H10        -13.0940     1.1420     1.6010 hc         1 JG5       0.038700
     92 H12        -16.1230     1.5940     1.3910 hc         1 JG5       0.036200
     93 H13        -15.1430     1.9420     2.8160 hc         1 JG5       0.036200
     94 H14        -13.8120     3.6120     1.4950 hc         1 JG5       0.038700
     95 H15        -14.7870     3.2630     0.0680 hc         1 JG5       0.038700
     96 H16        -16.8400     4.0660     1.2730 hc         1 JG5       0.036700
     97 H17        -15.8650     4.4160     2.7010 hc         1 JG5       0.036700
     98 H19        -14.5280     6.0840     1.3810 hc         1 JG5       0.040200
     99 H18        -15.5010     5.7330    -0.0480 hc         1 JG5       0.040200
    100 H20        -17.5560     6.5370     1.1550 hc         1 JG5       0.038200
    101 H21        -16.5820     6.8890     2.5830 hc         1 JG5       0.038200
    102 H23        -15.2450     8.5570     1.2590 hc         1 JG5       0.049200
    103 H22        -16.2180     8.2040    -0.1690 hc         1 JG5       0.049200
    104 H25        -18.2740     9.0100     1.0370 hc         1 JG5       0.064200
    105 H24        -17.3070     9.3620     2.4580 hc         1 JG5       0.064200
    106 H26        -15.4030    -0.8790     1.5050 hc         1 JG5       0.035700
    107 H27        -14.4170    -0.5320     2.9260 hc         1 JG5       0.035700
    108 H28        -13.6880    -3.0040     3.0290 hc         1 JG5       0.035700
    109 H29        -14.6790    -3.3520     1.6120 hc         1 JG5       0.035700
    110 H30        -12.9550    -5.4710     3.1300 hc         1 JG5       0.035700
    111 H31        -13.9480    -5.8240     1.7160 hc         1 JG5       0.035700
    112 H32        -10.9130    -6.2580     1.8890 hc         1 JG5       0.058200
    113 H33        -11.9090    -6.6130     0.4790 hc         1 JG5       0.058200
    114 H35         -7.5760    -8.7660     2.0050 h1         1 JG5       0.104200
    115 H34         -8.3120    -9.4580     0.5300 h1         1 JG5       0.104200
    116 H36         -5.9700    -9.6080    -0.6140 hc         1 JG5       0.061700
    117 H37         -5.2520    -8.8620     0.8490 hc         1 JG5       0.061700
    118 H39         -1.8760   -11.9000     0.7790 h1         1 JG5       0.067700
    119 H38         -1.1670   -10.4520     1.5150 h1         1 JG5       0.067700
    120 H40         -0.1150   -10.9450    -0.6830 h1         1 JG5       0.028700
    121 H41         -1.7000   -10.8570    -1.4860 h1         1 JG5       0.028700
    122 H42         -0.9880    -8.8790    -2.8300 h1         1 JG5       0.023700
    123 H43          0.6310    -8.9730    -2.1020 h1         1 JG5       0.023700
    124 H44         -0.0950    -6.6550    -2.9540 h1         1 JG5       0.020700
    125 H45         -1.2980    -6.6190    -1.6460 h1         1 JG5       0.020700
    126 H46         -0.0840    -4.7380    -0.4790 h1         1 JG5       0.028700
    127 H47          1.0250    -4.7020    -1.8600 h1         1 JG5       0.028700
    128 H48          3.5760    -3.4170     1.7600 h1         1 JG5       0.065700
    129 H49          3.9400    -1.4930    -0.6000 hc         1 JG5       0.057200
    130 H50          5.0210    -1.6100     0.7820 hc         1 JG5       0.057200
    131 H52          5.5640    -3.9680     0.2050 hc         1 JG5       0.046200
    132 H51          4.4570    -3.8770    -1.2030 hc         1 JG5       0.046200
    133 H53          8.0050    -2.2190    -3.3810 h1         1 JG5       0.059700
    134 H55          7.2460    -0.5520    -5.1050 hc         1 JG5       0.058700
    135 H54          5.5720    -0.8590    -4.6620 hc         1 JG5       0.058700
    136 H57          5.9980     0.0030    -2.3630 hc         1 JG5       0.053200
    137 H56          7.7280     0.2430    -2.7800 hc         1 JG5       0.053200
    138 H59          6.5600     3.9230    -5.1700 h1         1 JG5       0.055700
    139 H58          8.2810     4.1600    -4.8230 h1         1 JG5       0.055700
    140 H61          6.8160     5.8460    -3.6690 h1         1 JG5       0.018200
    141 H60          6.0110     4.5320    -2.7790 h1         1 JG5       0.018200
    142 H63          6.9350     5.3750    -0.5830 h1         1 JG5       0.019200
    143 H62          7.6330     6.7450    -1.4760 h1         1 JG5       0.019200
    144 H64          8.8120     6.1380     0.7200 h1         1 JG5       0.022700
    145 H65          9.3260     4.6150    -0.0390 h1         1 JG5       0.022700
    146 H67         11.7350     5.3600     0.0490 h1         1 JG5       0.028200
    147 H66         11.2190     6.8530     0.8530 h1         1 JG5       0.028200
    148 H68         14.9120     8.0140    -1.6610 h1         1 JG5       0.062700
    149 H70         15.0630     9.2510     1.1400 hc         1 JG5       0.045200
    150 H69         16.0130     9.7600    -0.2500 hc         1 JG5       0.045200
    151 H72         13.8860    10.3570    -1.4740 hc         1 JG5       0.038700
    152 H71         12.9550     9.9160    -0.0410 hc         1 JG5       0.038700
    153 H73         14.1480    11.6790     1.2850 hc         1 JG5       0.037200
    154 H74         15.0770    12.1260    -0.1470 hc         1 JG5       0.037200
    155 H76         12.9530    12.7690    -1.3300 h1         1 JG5       0.050700
    156 H75         12.0190    12.3040     0.1070 h1         1 JG5       0.050700
    157 H77         13.0450    16.6910     0.6950 hc         1 JG5       0.051700
    158 H78         14.2920    16.0660     1.6780 hc         1 JG5       0.051700
    159 H79         14.7610    17.0240     0.2110 hc         1 JG5       0.051700
    160 H83        -10.3250    -8.9870     3.5390 hn         1 JG5       0.344500
    161 H84         -3.2370    -9.3820     1.3820 hn         1 JG5       0.326500
    162 H85          1.4350    -2.8050    -0.2370 hn         1 JG5       0.287500
    163 H86          5.2040    -3.2090    -3.0750 hn         1 JG5       0.287500
    164 H87          8.3400     2.1010    -3.6970 hn         1 JG5       0.323500
    165 H88         13.7210     6.7210     0.7520 hn         1 JG5       0.283500
    166 H89         12.6390    14.2870     1.1580 hn         1 JG5       0.308500
    167 O82          8.1580    -3.7110    -5.3200 o          1 JG5      -0.727500
    168 O83          6.0210    -3.5900    -5.5560 o          1 JG5      -0.727500
@<TRIPOS>BOND
     1     1    54 1   
     2     1    55 1   
     3     1    81 1   
     4     2    16 1   
     5     2    17 1   
     6     2    82 1   
     7     2    83 1   
     8     3    17 1   
     9     3    18 1   
    10     3    84 1   
    11     3    85 1   
    12     4     5 1   
    13     4    19 1   
    14     4    86 1   
    15     4    87 1   
    16     5    56 1   
    17     5    63 2   
    18     6    20 1   
    19     6    21 1   
    20     6    88 1   
    21     6    89 1   
    22     7     8 1   
    23     7    16 1   
    24     7    90 1   
    25     7    91 1   
    26     8     9 1   
    27     8    92 1   
    28     8    93 1   
    29     9    10 1   
    30     9    94 1   
    31     9    95 1   
    32    10    11 1   
    33    10    96 1   
    34    10    97 1   
    35    11    12 1   
    36    11    98 1   
    37    11    99 1   
    38    12    13 1   
    39    12   100 1   
    40    12   101 1   
    41    13    14 1   
    42    13   102 1   
    43    13   103 1   
    44    14    15 1   
    45    14   104 1   
    46    14   105 1   
    47    15    53 1   
    48    15    55 2   
    49    16   106 1   
    50    16   107 1   
    51    17   108 1   
    52    17   109 1   
    53    18    19 1   
    54    18   110 1   
    55    18   111 1   
    56    19   112 1   
    57    19   113 1   
    58    20    80 1   
    59    20   114 1   
    60    20   115 1   
    61    21    22 1   
    62    21   116 1   
    63    21   117 1   
    64    22    57 1   
    65    22    66 2   
    66    23    24 1   
    67    23    57 1   
    68    23   118 1   
    69    23   119 1   
    70    24    67 1   
    71    24   120 1   
    72    24   121 1   
    73    25    26 1   
    74    25    67 1   
    75    25   122 1   
    76    25   123 1   
    77    26    68 1   
    78    26   124 1   
    79    26   125 1   
    80    27    28 1   
    81    27    68 1   
    82    27   126 1   
    83    27   127 1   
    84    28    58 1   
    85    28    69 2   
    86    29    30 1   
    87    29    52 1   
    88    29    58 1   
    89    29   128 1   
    90    30    31 1   
    91    30   129 1   
    92    30   130 1   
    93    31    32 1   
    94    31   131 1   
    95    31   132 1   
    96    32    59 1   
    97    32    70 2   
    98    33    34 1   
    99    33    51 1   
   100    33    59 1   
   101    33   133 1   
   102    34    35 1   
   103    34   134 1   
   104    34   135 1   
   105    35    36 1   
   106    35   136 1   
   107    35   137 1   
   108    36    60 1   
   109    36    71 2   
   110    37    38 1   
   111    37    60 1   
   112    37   138 1   
   113    37   139 1   
   114    38    72 1   
   115    38   140 1   
   116    38   141 1   
   117    39    40 1   
   118    39    72 1   
   119    39   142 1   
   120    39   143 1   
   121    40    73 1   
   122    40   144 1   
   123    40   145 1   
   124    41    42 1   
   125    41    73 1   
   126    41   146 1   
   127    41   147 1   
   128    42    61 1   
   129    42    74 2   
   130    43    44 1   
   131    43    50 1   
   132    43    61 1   
   133    43   148 1   
   134    44    45 1   
   135    44   149 1   
   136    44   150 1   
   137    45    46 1   
   138    45   151 1   
   139    45   152 1   
   140    46    47 1   
   141    46   153 1   
   142    46   154 1   
   143    47    62 1   
   144    47   155 1   
   145    47   156 1   
   146    48    49 1   
   147    48    62 1   
   148    48    75 2   
   149    49   157 1   
   150    49   158 1   
   151    49   159 1   
   152    50    76 1   
   153    50    77 1   
   154    51   167 1   
   155    51   168 1   
   156    52    78 1   
   157    52    79 1   
   158    53    54 2   
   159    56    80 1   
   160    56   160 1   
   161    57   161 1   
   162    58   162 1   
   163    59   163 1   
   164    60   164 1   
   165    61   165 1   
   166    62   166 1   
   167    64    80 2   
   168    65    80 2   
@<TRIPOS>SUBSTRUCTURE
     1 JG5         1 TEMP              0 ****  ****    0 ROOT
