@<TRIPOS>MOLECULE
JG7
   73    77     1     0     0
SMALL
No Charge or Current Charge


@<TRIPOS>ATOM
      1 Cl          21.7000   -46.1930    25.7170 cl         1 JG7      -0.187000
      2 C15         22.9870   -44.9890    25.7630 ca         1 JG7       0.262000
      3 C18         24.2680   -45.4410    26.1040 ca         1 JG7      -0.217000
      4 C19         25.3500   -44.5520    26.1680 ca         1 JG7       0.405000
      5 N16         26.6450   -44.9940    26.5150 nh         1 JG7      -0.801400
      6 C31         27.7970   -44.7460    25.5900 c6         1 JG7       0.211800
      7 C36         29.1750   -44.7740    26.3270 c6         1 JG7       0.149800
      8 C32         26.8500   -46.1960    27.3840 c6         1 JG7       0.211800
      9 C37         28.2440   -46.1900    28.0880 c6         1 JG7       0.149800
     10 N25         29.3840   -46.0210    27.1330 n3         1 JG7      -0.716600
     11 C39         30.6980   -46.0790    27.8190 c3         1 JG7       0.165800
     12 C40         31.9140   -46.1170    26.8720 c3         1 JG7      -0.090100
     13 C30         25.1350   -43.1970    25.8840 ca         1 JG7      -0.215000
     14 C22         23.8580   -42.7300    25.5410 ca         1 JG7       0.031000
     15 C6          22.7700   -43.6240    25.4830 ca         1 JG7      -0.344500
     16 S2          21.1350   -42.9870    25.0700 sy         1 JG7       1.088500
     17 O23         20.5880   -43.8310    24.0000 o          1 JG7      -0.525500
     18 O24         21.2680   -41.5410    24.8560 o          1 JG7      -0.525500
     19 C5          20.0470   -43.2570    26.5620 c5         1 JG7      -0.301700
     20 C9          20.6910   -42.6560    27.8350 c5         1 JG7       0.142000
     21 C10         18.6890   -42.5030    26.4530 c5         1 JG7      -0.052400
     22 C7          19.0200   -41.0520    26.9300 c5         1 JG7       0.029700
     23 C13         17.7610   -40.4800    27.6590 c          1 JG7       0.597100
     24 O29         17.5220   -40.5030    28.8600 o          1 JG7      -0.577100
     25 N17         16.9040   -39.9210    26.7270 ns         1 JG7      -0.474900
     26 C14         15.6410   -39.2890    27.0500 cx         1 JG7      -0.036900
     27 C27         15.2360   -38.1170    26.1780 cx         1 JG7      -0.096900
     28 C26         15.7120   -37.8740    27.5900 cx         1 JG7      -0.096900
     29 C20         14.5990   -40.2600    27.5610 c2         1 JG7       0.461200
     30 N21         13.4150   -39.8970    27.9130 n2         1 JG7      -0.756100
     31 N3          20.2170   -41.2540    27.8010 n          1 JG7      -0.385800
     32 C4          20.7730   -40.1830    28.5440 c          1 JG7       0.655100
     33 O28         20.3430   -39.0430    28.4300 o          1 JG7      -0.578100
     34 C1          21.9370   -40.4830    29.4730 cx         1 JG7      -0.301000
     35 C8          21.4940   -40.9090    30.8790 c3         1 JG7       0.334000
     36 F35         20.8130   -39.9100    31.4850 f          1 JG7      -0.109000
     37 F34         22.5470   -41.2190    31.6700 f          1 JG7      -0.109000
     38 F33         20.6860   -41.9890    30.8450 f          1 JG7      -0.109000
     39 C12         23.1170   -39.5210    29.3660 cx         1 JG7      -0.086400
     40 C11         23.2630   -40.9350    28.8670 cx         1 JG7      -0.086400
     41 H20         14.8750   -41.3100    27.6130 h4         1 JG7      -0.036200
     42 H22         23.7290   -41.6690    25.3280 ha         1 JG7       0.143000
     43 H30         25.9610   -42.4960    25.9420 ha         1 JG7       0.124000
     44 H18         24.4140   -46.4960    26.3080 ha         1 JG7       0.133000
     45 H311        27.8060   -45.5140    24.8020 h1         1 JG7       0.055950
     46 H312        27.6950   -43.7730    25.0880 h1         1 JG7       0.055950
     47 H321        26.0730   -46.2420    28.1620 h1         1 JG7       0.055950
     48 H322        26.7660   -47.1120    26.7800 h1         1 JG7       0.055950
     49 H361        29.9610   -44.6640    25.5670 h1         1 JG7       0.045950
     50 H362        29.2350   -43.8900    26.9790 h1         1 JG7       0.045950
     51 H371        28.2520   -45.3770    28.8300 h1         1 JG7       0.045950
     52 H372        28.3530   -47.1310    28.6470 h1         1 JG7       0.045950
     53 H391        30.8090   -45.2230    28.4980 h1         1 JG7       0.033700
     54 H392        30.7400   -46.9860    28.4390 h1         1 JG7       0.033700
     55 H401        32.8320   -46.2840    27.4470 hc         1 JG7       0.040700
     56 H402        31.8130   -46.9320    26.1450 hc         1 JG7       0.040700
     57 H403        32.0270   -45.1720    26.3280 hc         1 JG7       0.040700
     58 H5          19.9150   -44.3410    26.6390 h1         1 JG7       0.116700
     59 H91C        20.3080   -43.1660    28.7280 h1         1 JG7       0.069700
     60 H92C        21.7820   -42.7580    27.8370 h1         1 JG7       0.069700
     61 H101        18.2540   -42.5290    25.4460 hc         1 JG7       0.075700
     62 H102        17.9540   -42.9720    27.1200 hc         1 JG7       0.075700
     63 H7          19.2730   -40.3930    26.0890 h1         1 JG7       0.088700
     64 H17         17.1980   -39.9670    25.7570 hn         1 JG7       0.322500
     65 H271        15.8990   -37.8260    25.3660 hc         1 JG7       0.087950
     66 H272        14.1790   -37.9710    25.9700 hc         1 JG7       0.087950
     67 H261        14.9730   -37.5670    28.3270 hc         1 JG7       0.087950
     68 H262        16.6940   -37.4280    27.7250 hc         1 JG7       0.087950
     69 H21         12.8900   -40.7300    28.2170 hn         1 JG7       0.381400
     70 H121        23.0760   -38.7290    28.6210 hc         1 JG7       0.092700
     71 H122        23.6550   -39.2500    30.2720 hc         1 JG7       0.092700
     72 H111        23.8940   -41.6130    29.4370 hc         1 JG7       0.092700
     73 H112        23.3290   -41.0630    27.7890 hc         1 JG7       0.092700
@<TRIPOS>BOND
     1     1     2 1   
     2     2     3 ar  
     3     2    15 ar  
     4     3     4 ar  
     5     3    44 1   
     6     4     5 1   
     7     4    13 ar  
     8     5     6 1   
     9     5     8 1   
    10     6     7 1   
    11     6    45 1   
    12     6    46 1   
    13     7    10 1   
    14     7    49 1   
    15     7    50 1   
    16     8     9 1   
    17     8    47 1   
    18     8    48 1   
    19     9    10 1   
    20     9    51 1   
    21     9    52 1   
    22    10    11 1   
    23    11    12 1   
    24    11    53 1   
    25    11    54 1   
    26    12    55 1   
    27    12    56 1   
    28    12    57 1   
    29    13    14 ar  
    30    13    43 1   
    31    14    15 ar  
    32    14    42 1   
    33    15    16 1   
    34    16    17 2   
    35    16    18 2   
    36    16    19 1   
    37    19    20 1   
    38    19    21 1   
    39    19    58 1   
    40    20    31 1   
    41    20    59 1   
    42    20    60 1   
    43    21    22 1   
    44    21    61 1   
    45    21    62 1   
    46    22    23 1   
    47    22    31 1   
    48    22    63 1   
    49    23    24 2   
    50    23    25 1   
    51    25    26 1   
    52    25    64 1   
    53    26    27 1   
    54    26    28 1   
    55    26    29 1   
    56    27    28 1   
    57    27    65 1   
    58    27    66 1   
    59    28    67 1   
    60    28    68 1   
    61    29    30 2   
    62    29    41 1   
    63    30    69 1   
    64    31    32 1   
    65    32    33 2   
    66    32    34 1   
    67    34    35 1   
    68    34    39 1   
    69    34    40 1   
    70    35    36 1   
    71    35    37 1   
    72    35    38 1   
    73    39    40 1   
    74    39    70 1   
    75    39    71 1   
    76    40    72 1   
    77    40    73 1   
@<TRIPOS>SUBSTRUCTURE
     1 JG7         1 TEMP              0 ****  ****    0 ROOT
