@<TRIPOS>MOLECULE
JG7
   73    77     1     0     0
SMALL
abcg2


@<TRIPOS>ATOM
      1 CL          21.6620   -46.2660    25.5580 cl         1 JG7      -0.187000
      2 C15         22.9580   -45.0930    25.5870 ca         1 JG7       0.262000
      3 C18         24.2060   -45.5580    25.9470 ca         1 JG7      -0.217000
      4 C19         25.3240   -44.6920    26.0150 ca         1 JG7       0.405000
      5 N16         26.5410   -45.1340    26.4560 nh         1 JG7      -0.801400
      6 C31         27.7690   -44.3980    26.1540 c6         1 JG7       0.211800
      7 C36         28.8400   -44.6410    27.2030 c6         1 JG7       0.149800
      8 C32         26.7800   -46.5490    26.7300 c6         1 JG7       0.211800
      9 C37         27.8840   -46.7330    27.7590 c6         1 JG7       0.149800
     10 N25         29.1130   -46.0640    27.3580 n3         1 JG7      -0.716600
     11 C39         30.1910   -46.3310    28.3120 c3         1 JG7       0.165800
     12 C40         31.5590   -45.8770    27.8240 c3         1 JG7      -0.090100
     13 C30         25.1070   -43.3470    25.6270 ca         1 JG7      -0.215000
     14 C22         23.8540   -42.9030    25.2740 ca         1 JG7       0.031000
     15 C6          22.7430   -43.7510    25.2560 ca         1 JG7      -0.344500
     16 S2          21.1730   -43.0440    24.8720 sy         1 JG7       1.088500
     17 O23         20.4940   -43.8210    23.8510 o          1 JG7      -0.525500
     18 O24         21.3850   -41.6320    24.6060 o          1 JG7      -0.525500
     19 C5          20.2130   -43.1990    26.3970 c5         1 JG7      -0.301700
     20 C9          20.8570   -42.4830    27.5780 c5         1 JG7       0.142000
     21 C10         18.8480   -42.5170    26.2470 c5         1 JG7      -0.052400
     22 C7          19.0630   -41.0740    26.7440 c5         1 JG7       0.029700
     23 C13         17.8960   -40.6190    27.6220 c          1 JG7       0.597100
     24 O29         17.8220   -40.9250    28.8070 o          1 JG7      -0.577100
     25 N17         16.9440   -39.9220    26.9730 ns         1 JG7      -0.474900
     26 C14         15.7360   -39.4930    27.6160 cx         1 JG7      -0.036900
     27 C27         15.1880   -38.1470    27.1890 cx         1 JG7      -0.096900
     28 C26         15.8130   -38.2910    28.5340 cx         1 JG7      -0.096900
     29 C20         14.7800   -40.5850    27.9320 c2         1 JG7       0.461200
     30 N21         13.7260   -40.3990    28.6130 n2         1 JG7      -0.756100
     31 N3          20.3100   -41.1290    27.5030 n          1 JG7      -0.385800
     32 C4          20.8390   -39.9830    27.9680 c          1 JG7       0.655100
     33 O28         20.2730   -38.9040    27.7980 o          1 JG7      -0.578100
     34 C1          22.1680   -40.0510    28.7040 cx         1 JG7      -0.301000
     35 C8          22.0570   -40.4440    30.1480 c3         1 JG7       0.334000
     36 F35         21.2390   -39.6070    30.8290 f          1 JG7      -0.109000
     37 F34         23.2490   -40.4270    30.7790 f          1 JG7      -0.109000
     38 F33         21.5490   -41.6870    30.3220 f          1 JG7      -0.109000
     39 C12         23.1860   -38.9920    28.3750 cx         1 JG7      -0.086400
     40 C11         23.4290   -40.4070    27.9540 cx         1 JG7      -0.086400
     41 H20         15.0570   -41.5580    27.5160 h4         1 JG7      -0.036200
     42 H22         23.7170   -41.8670    25.0050 ha         1 JG7       0.143000
     43 H30         25.9130   -42.6320    25.6240 ha         1 JG7       0.124000
     44 H18         24.2990   -46.6070    26.1690 ha         1 JG7       0.133000
     45 H311        28.1430   -44.7080    25.1690 h1         1 JG7       0.055950
     46 H312        27.5710   -43.3330    26.1190 h1         1 JG7       0.055950
     47 H321        25.8810   -47.0070    27.1310 h1         1 JG7       0.055950
     48 H322        27.0460   -47.0690    25.8000 h1         1 JG7       0.055950
     49 H361        29.7440   -44.1230    26.8850 h1         1 JG7       0.045950
     50 H362        28.5170   -44.1970    28.1620 h1         1 JG7       0.045950
     51 H371        27.5270   -46.3570    28.7340 h1         1 JG7       0.045950
     52 H372        28.0780   -47.8010    27.8670 h1         1 JG7       0.045950
     53 H391        29.9690   -45.8630    29.2880 h1         1 JG7       0.033700
     54 H392        30.2100   -47.4100    28.4780 h1         1 JG7       0.033700
     55 H401        32.3270   -46.1910    28.5340 hc         1 JG7       0.040700
     56 H402        31.7870   -46.3220    26.8530 hc         1 JG7       0.040700
     57 H403        31.6250   -44.7920    27.7270 hc         1 JG7       0.040700
     58 H5          20.1260   -44.2690    26.5660 h1         1 JG7       0.116700
     59 H91C        20.5400   -42.9790    28.4960 h1         1 JG7       0.069700
     60 H92C        21.9430   -42.4790    27.5500 h1         1 JG7       0.069700
     61 H101        18.4590   -42.5400    25.2320 hc         1 JG7       0.075700
     62 H102        18.1410   -43.0400    26.8910 hc         1 JG7       0.075700
     63 H7          19.1890   -40.3850    25.9090 h1         1 JG7       0.088700
     64 H17         17.0670   -39.7150    25.9930 hn         1 JG7       0.322500
     65 H271        15.7410   -37.6280    26.4160 hc         1 JG7       0.087950
     66 H272        14.1110   -38.0780    27.1250 hc         1 JG7       0.087950
     67 H261        15.1680   -38.3160    29.4000 hc         1 JG7       0.087950
     68 H262        16.8010   -37.8780    28.6860 hc         1 JG7       0.087950
     69 H21         13.1960   -41.2640    28.7020 hn         1 JG7       0.381400
     70 H121        22.8920   -38.2770    27.6200 hc         1 JG7       0.092700
     71 H122        23.7710   -38.5900    29.1890 hc         1 JG7       0.092700
     72 H111        24.1780   -40.9900    28.4710 hc         1 JG7       0.092700
     73 H112        23.3040   -40.6450    26.9080 hc         1 JG7       0.092700
@<TRIPOS>BOND
     1     1     2 1   
     2     2     3 ar  
     3     2    15 ar  
     4     3     4 ar  
     5     3    44 1   
     6     4     5 1   
     7     4    13 ar  
     8     5     6 1   
     9     5     8 1   
    10     6     7 1   
    11     6    45 1   
    12     6    46 1   
    13     7    10 1   
    14     7    49 1   
    15     7    50 1   
    16     8     9 1   
    17     8    47 1   
    18     8    48 1   
    19     9    10 1   
    20     9    51 1   
    21     9    52 1   
    22    10    11 1   
    23    11    12 1   
    24    11    53 1   
    25    11    54 1   
    26    12    55 1   
    27    12    56 1   
    28    12    57 1   
    29    13    14 ar  
    30    13    43 1   
    31    14    15 ar  
    32    14    42 1   
    33    15    16 1   
    34    16    17 2   
    35    16    18 2   
    36    16    19 1   
    37    19    20 1   
    38    19    21 1   
    39    19    58 1   
    40    20    31 1   
    41    20    59 1   
    42    20    60 1   
    43    21    22 1   
    44    21    61 1   
    45    21    62 1   
    46    22    23 1   
    47    22    31 1   
    48    22    63 1   
    49    23    24 2   
    50    23    25 1   
    51    25    26 1   
    52    25    64 1   
    53    26    27 1   
    54    26    28 1   
    55    26    29 1   
    56    27    28 1   
    57    27    65 1   
    58    27    66 1   
    59    28    67 1   
    60    28    68 1   
    61    29    30 2   
    62    29    41 1   
    63    30    69 1   
    64    31    32 1   
    65    32    33 2   
    66    32    34 1   
    67    34    35 1   
    68    34    39 1   
    69    34    40 1   
    70    35    36 1   
    71    35    37 1   
    72    35    38 1   
    73    39    40 1   
    74    39    70 1   
    75    39    71 1   
    76    40    72 1   
    77    40    73 1   
@<TRIPOS>SUBSTRUCTURE
     1 JG7         1 TEMP              0 ****  ****    0 ROOT
