@<TRIPOS>MOLECULE
JG8
   20    22     1     0     0
SMALL
bcc


@<TRIPOS>ATOM
      1 O1         -81.5840    33.3840   167.7500 o          1 JG8      -0.586500
      2 C9         -80.8150    33.1090   168.6530 c          1 JG8       0.737700
      3 N1         -80.0400    34.0680   169.3000 ns         1 JG8      -0.485400
      4 C8         -79.1670    33.8300   170.3080 cc         1 JG8       0.483800
      5 N          -78.9300    32.6670   170.8160 nd         1 JG8      -0.580300
      6 C1         -79.6420    31.6600   170.2490 cd         1 JG8       0.155400
      7 C          -80.5390    31.8310   169.2280 cc         1 JG8      -0.108100
      8 O          -81.1120    30.6710   168.8410 os         1 JG8      -0.124200
      9 C7         -80.5750    29.7110   169.6360 ca         1 JG8       0.083100
     10 C2         -79.6520    30.2530   170.5360 ca         1 JG8      -0.111800
     11 C6         -80.8770    28.3610   169.5890 ca         1 JG8      -0.130000
     12 C5         -80.2110    27.5520   170.4950 ca         1 JG8      -0.093000
     13 C4         -79.2810    28.0720   171.4080 ca         1 JG8      -0.157000
     14 C3         -78.9910    29.4230   171.4390 ca         1 JG8      -0.050000
     15 H1         -80.1410    35.0240   168.9840 hn         1 JG8       0.334500
     16 H8         -78.6510    34.7030   170.6840 h5         1 JG8       0.053800
     17 H6         -81.5930    27.9570   168.8870 ha         1 JG8       0.155000
     18 H3         -78.2740    29.8260   172.1420 ha         1 JG8       0.151000
     19 H5         -80.4160    26.4900   170.4990 ha         1 JG8       0.136000
     20 H4         -78.7860    27.4010   172.0970 ha         1 JG8       0.137000
@<TRIPOS>BOND
     1     1     2 2   
     2     2     3 1   
     3     2     7 1   
     4     3     4 1   
     5     3    15 1   
     6     4     5 2   
     7     4    16 1   
     8     5     6 1   
     9     6     7 2   
    10     6    10 1   
    11     7     8 1   
    12     8     9 1   
    13     9    10 ar  
    14     9    11 ar  
    15    10    14 ar  
    16    11    12 ar  
    17    11    17 1   
    18    12    13 ar  
    19    12    19 1   
    20    13    14 ar  
    21    13    20 1   
    22    14    18 1   
@<TRIPOS>SUBSTRUCTURE
     1 JG8         1 TEMP              0 ****  ****    0 ROOT
