@<TRIPOS>MOLECULE
JG8
   20    22     1     0     0
SMALL
No Charge or Current Charge


@<TRIPOS>ATOM
      1 O1         -81.5660    33.4590   167.7500 o          1 JG8      -0.511000
      2 C9         -80.7950    33.1840   168.6570 c          1 JG8       0.595200
      3 N1         -80.0360    34.1140   169.2930 ns         1 JG8      -0.418400
      4 C8         -79.1550    33.8400   170.3190 cc         1 JG8       0.483800
      5 N          -78.9250    32.6220   170.8310 nd         1 JG8      -0.580300
      6 C1         -79.6700    31.6110   170.2280 cd         1 JG8       0.155400
      7 C          -80.5510    31.8570   169.2070 cc         1 JG8      -0.108100
      8 O          -81.1580    30.6680   168.7930 os         1 JG8      -0.124200
      9 C7         -80.5920    29.7060   169.6190 ca         1 JG8       0.083100
     10 C2         -79.6800    30.2190   170.5130 ca         1 JG8      -0.111800
     11 C6         -80.8770    28.3340   169.5980 ca         1 JG8      -0.112000
     12 C5         -80.2010    27.5000   170.5180 ca         1 JG8      -0.075000
     13 C4         -79.2640    28.0440   171.4320 ca         1 JG8      -0.139000
     14 C3         -78.9900    29.4290   171.4390 ca         1 JG8      -0.032000
     15 H1         -80.1380    35.0680   168.9780 hn         1 JG8       0.334500
     16 H8         -78.6520    34.7270   170.6830 h5         1 JG8       0.053800
     17 H6         -81.5970    27.9260   168.8930 ha         1 JG8       0.137000
     18 H3         -78.2750    29.8650   172.1320 ha         1 JG8       0.133000
     19 H5         -80.4030    26.4300   170.5240 ha         1 JG8       0.118000
     20 H4         -78.7520    27.3900   172.1340 ha         1 JG8       0.119000
@<TRIPOS>BOND
     1     1     2 2   
     2     2     3 1   
     3     2     7 1   
     4     3     4 1   
     5     3    15 1   
     6     4     5 2   
     7     4    16 1   
     8     5     6 1   
     9     6     7 2   
    10     6    10 1   
    11     7     8 1   
    12     8     9 1   
    13     9    10 ar  
    14     9    11 ar  
    15    10    14 ar  
    16    11    12 ar  
    17    11    17 1   
    18    12    13 ar  
    19    12    19 1   
    20    13    14 ar  
    21    13    20 1   
    22    14    18 1   
@<TRIPOS>SUBSTRUCTURE
     1 JG8         1 TEMP              0 ****  ****    0 ROOT
