@<TRIPOS>MOLECULE
JG9
   50    53     1     0     0
SMALL
No Charge or Current Charge


@<TRIPOS>ATOM
      1 C10         89.4990    -9.8190    15.8320 c3         1 JG9      -0.010900
      2 C11         90.5190    -8.1690    18.3900 c3         1 JG9      -0.019900
      3 C13         93.6140   -10.0160    11.8610 c3         1 JG9      -0.019100
      4 C15         94.6970   -11.8970    10.5350 cc         1 JG9       0.400800
      5 C17         95.7310   -12.2550     8.6010 cc         1 JG9      -0.211000
      6 C18         94.5640   -12.9760     8.6730 cd         1 JG9       0.299500
      7 C21         94.0180   -13.8830     7.6380 ca         1 JG9      -0.100500
      8 C22         92.7980   -14.5670     7.8440 ca         1 JG9      -0.096000
      9 C23         92.2810   -15.4270     6.8600 ca         1 JG9      -0.114500
     10 C24         92.9760   -15.6180     5.6550 ca         1 JG9      -0.110000
     11 C25         94.1890   -14.9460     5.4370 ca         1 JG9      -0.114500
     12 C26         94.7070   -14.0850     6.4200 ca         1 JG9      -0.096000
     13 C1          92.1190    -9.8060    13.9420 cc         1 JG9      -0.055300
     14 C2          93.3070    -9.4790    13.2470 cd         1 JG9      -0.124300
     15 C3          94.3230    -8.6250    13.8280 cd         1 JG9      -0.103000
     16 C4          94.1550    -8.1040    15.0800 cc         1 JG9      -0.078000
     17 N5          91.9660    -9.1360    15.1910 na         1 JG9       0.134100
     18 C6          92.9500    -8.3760    15.7620 cc         1 JG9      -0.075000
     19 N7          92.5700    -7.9630    16.9530 nd         1 JG9      -0.292600
     20 C8          91.2920    -8.4650    17.1300 cd         1 JG9       0.069400
     21 C9          90.8630    -9.1950    16.0360 cc         1 JG9      -0.179300
     22 C12         91.0930   -10.7940    13.4150 c3         1 JG9      -0.060800
     23 C14         94.3800   -11.3560    11.9050 c3         1 JG9      -0.098700
     24 N16         95.8140   -11.5650     9.7910 na         1 JG9      -0.158500
     25 N19         93.9280   -12.7470     9.8770 nd         1 JG9      -0.675000
     26 H1          89.5370   -10.9100    15.9210 hc         1 JG9       0.044367
     27 H2          88.7910    -9.4650    16.5900 hc         1 JG9       0.044367
     28 H3          89.0710    -9.5490    14.8610 hc         1 JG9       0.044367
     29 H4          91.1430    -7.6660    19.1380 hc         1 JG9       0.046033
     30 H5          89.6620    -7.5200    18.1790 hc         1 JG9       0.046033
     31 H6          90.1390    -9.0930    18.8420 hc         1 JG9       0.046033
     32 H7          92.7010   -10.1270    11.2640 hc         1 JG9       0.061700
     33 H8          94.2180    -9.2870    11.3080 hc         1 JG9       0.061700
     34 H9          96.4780   -12.1840     7.8230 h4         1 JG9       0.158000
     35 H10         97.6300   -10.5670     9.3730 h1         1 JG9       0.054700
     36 H11         96.4830    -9.6550    10.3950 h1         1 JG9       0.054700
     37 H12         97.3960   -11.0320    11.0830 h1         1 JG9       0.054700
     38 H13         92.2420   -14.4340     8.7700 ha         1 JG9       0.117000
     39 H14         91.3410   -15.9470     7.0320 ha         1 JG9       0.110000
     40 H15         92.5760   -16.2840     4.8940 ha         1 JG9       0.111000
     41 H16         94.7290   -15.0910     4.5040 ha         1 JG9       0.110000
     42 H17         95.6480   -13.5770     6.2250 ha         1 JG9       0.117000
     43 H18         95.2350    -8.4070    13.2820 ha         1 JG9       0.119000
     44 H19         94.9120    -7.4800    15.5440 ha         1 JG9       0.142000
     45 H20         90.8000   -11.5120    14.1870 hc         1 JG9       0.060033
     46 H21         90.2010   -10.2800    13.0400 hc         1 JG9       0.060033
     47 H22         91.4740   -11.4080    12.5940 hc         1 JG9       0.060033
     48 H23         95.3060   -11.2240    12.4760 hc         1 JG9       0.056200
     49 H24         93.7880   -12.0940    12.4590 hc         1 JG9       0.056200
     50 C20         96.8960   -10.6480    10.1850 c3         1 JG9       0.056900
@<TRIPOS>BOND
     1     1    21 1   
     2     1    26 1   
     3     1    27 1   
     4     1    28 1   
     5     2    20 1   
     6     2    29 1   
     7     2    30 1   
     8     2    31 1   
     9     3    14 1   
    10     3    23 1   
    11     3    32 1   
    12     3    33 1   
    13     4    23 1   
    14     4    24 1   
    15     4    25 2   
    16     5     6 2   
    17     5    24 1   
    18     5    34 1   
    19     6     7 1   
    20     6    25 1   
    21     7     8 ar  
    22     7    12 ar  
    23     8     9 ar  
    24     8    38 1   
    25     9    10 ar  
    26     9    39 1   
    27    10    11 ar  
    28    10    40 1   
    29    11    12 ar  
    30    11    41 1   
    31    12    42 1   
    32    13    14 2   
    33    13    17 1   
    34    13    22 1   
    35    14    15 1   
    36    15    16 2   
    37    15    43 1   
    38    16    18 1   
    39    16    44 1   
    40    17    18 1   
    41    17    21 1   
    42    18    19 2   
    43    19    20 1   
    44    20    21 2   
    45    22    45 1   
    46    22    46 1   
    47    22    47 1   
    48    23    48 1   
    49    23    49 1   
    50    24    50 1   
    51    35    50 1   
    52    36    50 1   
    53    37    50 1   
@<TRIPOS>SUBSTRUCTURE
     1 JG9         1 TEMP              0 ****  ****    0 ROOT
