@<TRIPOS>MOLECULE
JG9
   50    53     1     0     0
SMALL
abcg2


@<TRIPOS>ATOM
      1 C10         90.0760   -10.4940    16.2220 c3         1 JG9      -0.010900
      2 C11         90.5010    -8.0640    18.1890 c3         1 JG9      -0.019900
      3 C13         93.4230   -10.0320    11.6590 c3         1 JG9      -0.019100
      4 C15         94.7510   -11.9010    10.6440 cc         1 JG9       0.400800
      5 C17         95.9460   -12.7060     8.9950 cc         1 JG9      -0.211000
      6 C18         94.6170   -12.9750     8.7910 cd         1 JG9       0.299500
      7 C21         93.9860   -13.6790     7.6760 ca         1 JG9      -0.100500
      8 C22         92.6020   -13.8680     7.6510 ca         1 JG9      -0.096000
      9 C23         91.9940   -14.5320     6.5950 ca         1 JG9      -0.114500
     10 C24         92.7540   -15.0200     5.5400 ca         1 JG9      -0.110000
     11 C25         94.1310   -14.8380     5.5540 ca         1 JG9      -0.114500
     12 C26         94.7400   -14.1760     6.6090 ca         1 JG9      -0.096000
     13 C1          92.1120    -9.8040    13.7980 cc         1 JG9      -0.055300
     14 C2          93.0580    -9.3180    12.9340 cd         1 JG9      -0.124300
     15 C3          93.7630    -8.1250    13.2470 cd         1 JG9      -0.103000
     16 C4          93.5070    -7.4340    14.3880 cc         1 JG9      -0.078000
     17 N5          91.8650    -9.1070    14.9670 na         1 JG9       0.134100
     18 C6          92.5340    -7.9270    15.2740 cc         1 JG9      -0.075000
     19 N7          92.1330    -7.4280    16.4250 nd         1 JG9      -0.292600
     20 C8          91.1970    -8.2900    16.8880 cd         1 JG9       0.069400
     21 C9          90.9990    -9.3420    16.0230 cc         1 JG9      -0.179300
     22 C12         91.3300   -11.0490    13.5340 c3         1 JG9      -0.060800
     23 C14         94.3880   -11.1990    11.9080 c3         1 JG9      -0.098700
     24 N16         96.0160   -12.0210    10.1720 na         1 JG9      -0.158500
     25 N19         93.8910   -12.4640     9.8310 nd         1 JG9      -0.675000
     26 H1          90.5880   -11.4560    16.2370 hc         1 JG9       0.044367
     27 H2          89.5940   -10.3790    17.1920 hc         1 JG9       0.044367
     28 H3          89.2800   -10.5510    15.4800 hc         1 JG9       0.044367
     29 H4          90.8860    -7.1660    18.6680 hc         1 JG9       0.046033
     30 H5          89.4250    -7.9380    18.0590 hc         1 JG9       0.046033
     31 H6          90.6460    -8.8980    18.8780 hc         1 JG9       0.046033
     32 H7          92.5390   -10.3960    11.1340 hc         1 JG9       0.061700
     33 H8          93.8980    -9.3200    10.9810 hc         1 JG9       0.061700
     34 H9          96.8310   -12.9330     8.4220 h4         1 JG9       0.158000
     35 H10         98.0640   -11.7200    10.1230 h1         1 JG9       0.054700
     36 H11         97.1660   -10.4610    10.9730 h1         1 JG9       0.054700
     37 H12         97.4200   -12.0410    11.7350 h1         1 JG9       0.054700
     38 H13         91.9990   -13.4900     8.4660 ha         1 JG9       0.117000
     39 H14         90.9200   -14.6670     6.5960 ha         1 JG9       0.110000
     40 H15         92.2790   -15.5360     4.7150 ha         1 JG9       0.111000
     41 H16         94.7370   -15.2120     4.7390 ha         1 JG9       0.110000
     42 H17         95.8160   -14.0470     6.5960 ha         1 JG9       0.117000
     43 H18         94.5110    -7.7640    12.5520 ha         1 JG9       0.119000
     44 H19         94.0250    -6.5190    14.6410 ha         1 JG9       0.142000
     45 H20         91.5390   -11.8250    14.2700 hc         1 JG9       0.060033
     46 H21         90.2570   -10.8610    13.5400 hc         1 JG9       0.060033
     47 H22         91.5760   -11.4600    12.5600 hc         1 JG9       0.060033
     48 H23         95.2810   -10.8280    12.4130 hc         1 JG9       0.056200
     49 H24         93.9280   -11.9150    12.5940 hc         1 JG9       0.056200
     50 C20         97.2300   -11.5320    10.7920 c3         1 JG9       0.056900
@<TRIPOS>BOND
     1     1    21 1   
     2     1    26 1   
     3     1    27 1   
     4     1    28 1   
     5     2    20 1   
     6     2    29 1   
     7     2    30 1   
     8     2    31 1   
     9     3    14 1   
    10     3    23 1   
    11     3    32 1   
    12     3    33 1   
    13     4    23 1   
    14     4    24 1   
    15     4    25 2   
    16     5     6 2   
    17     5    24 1   
    18     5    34 1   
    19     6     7 1   
    20     6    25 1   
    21     7     8 ar  
    22     7    12 ar  
    23     8     9 ar  
    24     8    38 1   
    25     9    10 ar  
    26     9    39 1   
    27    10    11 ar  
    28    10    40 1   
    29    11    12 ar  
    30    11    41 1   
    31    12    42 1   
    32    13    14 2   
    33    13    17 1   
    34    13    22 1   
    35    14    15 1   
    36    15    16 2   
    37    15    43 1   
    38    16    18 1   
    39    16    44 1   
    40    17    18 1   
    41    17    21 1   
    42    18    19 2   
    43    19    20 1   
    44    20    21 2   
    45    22    45 1   
    46    22    46 1   
    47    22    47 1   
    48    23    48 1   
    49    23    49 1   
    50    24    50 1   
    51    35    50 1   
    52    36    50 1   
    53    37    50 1   
@<TRIPOS>SUBSTRUCTURE
     1 JG9         1 TEMP              0 ****  ****    0 ROOT
