@<TRIPOS>MOLECULE
JGA
   23    23     1     0     0
SMALL
bcc


@<TRIPOS>ATOM
      1 C01          5.0740     0.3030    -0.0220 c3         1 JGA      -0.115100
      2 C02          3.8360    -0.5740     0.0020 c3         1 JGA       0.121000
      3 N03          2.6440     0.2520     0.0360 ns         1 JGA      -0.591900
      4 C04          1.4080    -0.2790     0.0170 c          1 JGA       0.802100
      5 O05          1.1910    -1.4790    -0.0560 o          1 JGA      -0.618100
      6 N06          0.3970     0.6590     0.0810 ns         1 JGA      -0.565400
      7 C07         -0.9470     0.3850     0.0900 cc         1 JGA       0.491200
      8 C08         -1.6360    -0.8550    -0.0160 cc         1 JGA      -0.389600
      9 C09         -2.9390    -0.4920     0.0470 cd         1 JGA       0.299000
     10 O10         -3.0320     0.8320     0.1780 os         1 JGA      -0.114100
     11 N11         -1.7800     1.3850     0.2060 nd         1 JGA      -0.446300
     12 C12         -4.1940    -1.2740    -0.0050 c3         1 JGA      -0.137400
     13 H012         5.1270     0.9400     0.8620 hc         1 JGA       0.044367
     14 H013         5.9690    -0.3180    -0.0370 hc         1 JGA       0.044367
     15 H011         5.0940     0.9390    -0.9070 hc         1 JGA       0.044367
     16 H022         3.8190    -1.2140    -0.8820 h1         1 JGA       0.053200
     17 H021         3.8660    -1.2330     0.8740 h1         1 JGA       0.053200
     18 H031         2.7640     1.2470     0.1330 hn         1 JGA       0.314500
     19 H061         0.6390     1.6370     0.1440 hn         1 JGA       0.330500
     20 H081        -1.2370    -1.8450    -0.1270 ha         1 JGA       0.195000
     21 H123        -4.7690    -1.1630     0.9150 hc         1 JGA       0.062367
     22 H121        -4.8280    -0.9500    -0.8310 hc         1 JGA       0.062367
     23 H122        -3.9680    -2.3290    -0.1390 hc         1 JGA       0.062367
@<TRIPOS>BOND
     1     1     2 1   
     2     1    13 1   
     3     1    14 1   
     4     1    15 1   
     5     2     3 1   
     6     2    16 1   
     7     2    17 1   
     8     3     4 1   
     9     3    18 1   
    10     4     5 2   
    11     4     6 1   
    12     6     7 1   
    13     6    19 1   
    14     7     8 1   
    15     7    11 2   
    16     8     9 2   
    17     8    20 1   
    18     9    10 1   
    19     9    12 1   
    20    10    11 1   
    21    12    21 1   
    22    12    22 1   
    23    12    23 1   
@<TRIPOS>SUBSTRUCTURE
     1 JGA         1 TEMP              0 ****  ****    0 ROOT
