@<TRIPOS>MOLECULE
JGA
   23    23     1     0     0
SMALL
No Charge or Current Charge


@<TRIPOS>ATOM
      1 C01          5.1080     0.3350     0.0130 c3         1 JGA      -0.115100
      2 C02          3.8710    -0.5740    -0.0350 c3         1 JGA       0.121000
      3 N03          2.6330     0.2010     0.0290 ns         1 JGA      -0.524900
      4 C04          1.3820    -0.3540     0.0070 c          1 JGA       0.668100
      5 O05          1.1950    -1.5550    -0.0690 o          1 JGA      -0.618100
      6 N06          0.3960     0.5870     0.0790 ns         1 JGA      -0.498400
      7 C07         -0.9660     0.4170     0.0830 cc         1 JGA       0.425900
      8 C08         -1.6680    -0.7990     0.0120 cc         1 JGA      -0.241000
      9 C09         -2.9740    -0.4490     0.0500 cd         1 JGA       0.189300
     10 O10         -3.0830     0.9140     0.1390 os         1 JGA      -0.069700
     11 N11         -1.7530     1.4720     0.1600 nd         1 JGA      -0.446300
     12 C12         -4.2170    -1.2910     0.0090 c3         1 JGA      -0.137400
     13 H012         5.1280     0.9140     0.9430 hc         1 JGA       0.044367
     14 H013         6.0230    -0.2670    -0.0370 hc         1 JGA       0.044367
     15 H011         5.1100     1.0320    -0.8340 hc         1 JGA       0.044367
     16 H022         3.8790    -1.1570    -0.9660 h1         1 JGA       0.053200
     17 H021         3.8970    -1.2750     0.8110 h1         1 JGA       0.053200
     18 H031         2.6990     1.2080     0.0930 hn         1 JGA       0.314500
     19 H061         0.7190     1.5400     0.1370 hn         1 JGA       0.330500
     20 H081        -1.2570    -1.7970    -0.0570 ha         1 JGA       0.177000
     21 H123        -4.8180    -1.1440     0.9140 hc         1 JGA       0.062367
     22 H121        -4.8370    -1.0290    -0.8560 hc         1 JGA       0.062367
     23 H122        -3.9690    -2.3560    -0.0630 hc         1 JGA       0.062367
@<TRIPOS>BOND
     1     1     2 1   
     2     1    13 1   
     3     1    14 1   
     4     1    15 1   
     5     2     3 1   
     6     2    16 1   
     7     2    17 1   
     8     3     4 1   
     9     3    18 1   
    10     4     5 2   
    11     4     6 1   
    12     6     7 1   
    13     6    19 1   
    14     7     8 1   
    15     7    11 2   
    16     8     9 2   
    17     8    20 1   
    18     9    10 1   
    19     9    12 1   
    20    10    11 1   
    21    12    21 1   
    22    12    22 1   
    23    12    23 1   
@<TRIPOS>SUBSTRUCTURE
     1 JGA         1 TEMP              0 ****  ****    0 ROOT
