@<TRIPOS>MOLECULE
JGB
   23    23     1     0     0
SMALL
abcg2


@<TRIPOS>ATOM
      1 C02         -3.4890    -0.4390    -0.1910 c          1 JGB       0.627300
      2 C04         -2.0990     0.1090    -0.0320 ce         1 JGB      -0.117900
      3 C05         -1.0580    -0.7530    -0.0900 cf         1 JGB      -0.013200
      4 C06          0.3680    -0.5670     0.0180 ca         1 JGB      -0.093800
      5 C07          1.0140     0.6690     0.1910 ca         1 JGB      -0.084000
      6 C08          2.3860     0.7450     0.2830 ca         1 JGB       0.114100
      7 C10          3.1560    -0.4320     0.2060 ca         1 JGB       0.075100
      8 C12          2.5290    -1.6570     0.0330 ca         1 JGB      -0.177000
      9 C13          1.1510    -1.7230    -0.0620 ca         1 JGB      -0.071000
     10 C14         -1.9590     1.5040     0.1850 cg         1 JGB       0.288700
     11 N01         -4.4820     0.4570    -0.1580 nt         1 JGB      -0.599000
     12 N15         -1.9100     2.6400     0.3820 n1         1 JGB      -0.462000
     13 O03         -3.6750    -1.6370    -0.3350 o          1 JGB      -0.609100
     14 O09          2.9660     1.9480     0.4460 oh         1 JGB      -0.529100
     15 O11          4.4820    -0.2710     0.3060 oh         1 JGB      -0.550100
     16 H1          -1.3550    -1.7840    -0.2500 ha         1 JGB       0.206000
     17 H2           0.4590     1.5940     0.2520 ha         1 JGB       0.144000
     18 H3           3.1220    -2.5620    -0.0290 ha         1 JGB       0.120000
     19 H4           0.6780    -2.6860    -0.2020 ha         1 JGB       0.123000
     20 H5          -4.3400     1.4490    -0.0770 hn         1 JGB       0.321500
     21 H6          -5.4340     0.1440    -0.2620 hn         1 JGB       0.321500
     22 H7           3.9260     1.8680     0.4690 ho         1 JGB       0.484000
     23 H8           4.9480    -1.1110     0.2170 ho         1 JGB       0.482000
@<TRIPOS>BOND
     1     1     2 1   
     2     1    11 1   
     3     1    13 2   
     4     2     3 2   
     5     2    10 1   
     6     3     4 1   
     7     3    16 1   
     8     4     5 ar  
     9     4     9 ar  
    10     5     6 ar  
    11     5    17 1   
    12     6     7 ar  
    13     6    14 1   
    14     7     8 ar  
    15     7    15 1   
    16     8     9 ar  
    17     8    18 1   
    18     9    19 1   
    19    10    12 3   
    20    11    20 1   
    21    11    21 1   
    22    14    22 1   
    23    15    23 1   
@<TRIPOS>SUBSTRUCTURE
     1 JGB         1 TEMP              0 ****  ****    0 ROOT
