@<TRIPOS>MOLECULE
JGB
   23    23     1     0     0
SMALL
No Charge or Current Charge


@<TRIPOS>ATOM
      1 C02         -3.5390    -0.3530    -0.3730 c          1 JGB       0.627300
      2 C04         -2.1340     0.0660    -0.0290 ce         1 JGB      -0.117900
      3 C05         -1.0700    -0.7500    -0.3220 cf         1 JGB      -0.013200
      4 C06          0.3880    -0.5800    -0.1120 ca         1 JGB      -0.093800
      5 C07          1.0260     0.6800    -0.1720 ca         1 JGB      -0.084000
      6 C08          2.4130     0.7860     0.0200 ca         1 JGB       0.114100
      7 C10          3.1860    -0.3660     0.2660 ca         1 JGB       0.075100
      8 C12          2.5660    -1.6240     0.3100 ca         1 JGB      -0.177000
      9 C13          1.1770    -1.7290     0.1150 ca         1 JGB      -0.071000
     10 C14         -1.9740     1.3170     0.6460 cg         1 JGB       0.288700
     11 N01         -4.5570     0.4800    -0.0480 nt         1 JGB      -0.599000
     12 N15         -1.8910     2.3430     1.1960 n1         1 JGB      -0.462000
     13 O03         -3.8020    -1.4060    -0.9300 o          1 JGB      -0.609100
     14 O09          3.0240     2.0060    -0.0400 oh         1 JGB      -0.529100
     15 O11          4.5390    -0.2590     0.4520 oh         1 JGB      -0.550100
     16 H1          -1.3080    -1.7060    -0.7950 ha         1 JGB       0.206000
     17 H2           0.4640     1.5830    -0.3930 ha         1 JGB       0.144000
     18 H3           3.1500    -2.5230     0.4920 ha         1 JGB       0.120000
     19 H4           0.7090    -2.7110     0.1530 ha         1 JGB       0.123000
     20 H5          -4.3710     1.3580     0.4130 hn         1 JGB       0.321500
     21 H6          -5.5020     0.2100    -0.2740 hn         1 JGB       0.321500
     22 H7           3.9810     1.8390     0.1180 ho         1 JGB       0.484000
     23 H8           4.9090    -1.1560     0.6070 ho         1 JGB       0.482000
@<TRIPOS>BOND
     1     1     2 1   
     2     1    11 1   
     3     1    13 2   
     4     2     3 2   
     5     2    10 1   
     6     3     4 1   
     7     3    16 1   
     8     4     5 ar  
     9     4     9 ar  
    10     5     6 ar  
    11     5    17 1   
    12     6     7 ar  
    13     6    14 1   
    14     7     8 ar  
    15     7    15 1   
    16     8     9 ar  
    17     8    18 1   
    18     9    19 1   
    19    10    12 3   
    20    11    20 1   
    21    11    21 1   
    22    14    22 1   
    23    15    23 1   
@<TRIPOS>SUBSTRUCTURE
     1 JGB         1 TEMP              0 ****  ****    0 ROOT
