@<TRIPOS>MOLECULE
JGD
   19    19     1     0     0
SMALL
No Charge or Current Charge


@<TRIPOS>ATOM
      1 C01          2.4010     1.1760     0.4110 c3         1 JGD       0.220600
      2 N02          1.6270    -0.0300     0.0290 nh         1 JGD      -0.826400
      3 C03          2.4030    -1.2370    -0.3470 c3         1 JGD       0.220600
      4 C04          0.2100    -0.0300     0.0230 ca         1 JGD       0.372000
      5 C05         -0.5130     1.1580    -0.1410 ca         1 JGD      -0.253500
      6 C06         -1.9110     1.1150    -0.1420 ca         1 JGD       0.369400
      7 N07         -2.6100    -0.0290     0.0120 nb         1 JGD      -0.704000
      8 C08         -1.9130    -1.1730     0.1710 ca         1 JGD       0.369400
      9 C09         -0.5150    -1.2170     0.1820 ca         1 JGD      -0.253500
     10 H011         1.9060     1.7080     1.2350 h1         1 JGD       0.038033
     11 H012         3.4080     0.9030     0.7530 h1         1 JGD       0.038033
     12 H013         2.4980     1.8580    -0.4440 h1         1 JGD       0.038033
     13 H032         1.9140    -1.7680    -1.1750 h1         1 JGD       0.038033
     14 H033         3.4130    -0.9640    -0.6820 h1         1 JGD       0.038033
     15 H031         2.4930    -1.9190     0.5080 h1         1 JGD       0.038033
     16 H051        -0.0140     2.1100    -0.2800 ha         1 JGD       0.118000
     17 H061        -2.4940     2.0260    -0.2720 h4         1 JGD       0.010100
     18 H081        -2.4980    -2.0830     0.2960 h4         1 JGD       0.010100
     19 H091        -0.0180    -2.1690     0.3240 ha         1 JGD       0.118000
@<TRIPOS>BOND
     1     1     2 1   
     2     1    10 1   
     3     1    11 1   
     4     1    12 1   
     5     2     3 1   
     6     2     4 1   
     7     3    13 1   
     8     3    14 1   
     9     3    15 1   
    10     4     5 ar  
    11     4     9 ar  
    12     5     6 ar  
    13     5    16 1   
    14     6     7 ar  
    15     6    17 1   
    16     7     8 ar  
    17     8     9 ar  
    18     8    18 1   
    19     9    19 1   
@<TRIPOS>SUBSTRUCTURE
     1 JGD         1 TEMP              0 ****  ****    0 ROOT
