@<TRIPOS>MOLECULE
JGD
   19    19     1     0     0
SMALL
abcg2


@<TRIPOS>ATOM
      1 C01          2.3450     1.2190     0.1110 c3         1 JGD       0.220600
      2 N02          1.6240    -0.0300     0.0280 nh         1 JGD      -0.826400
      3 C03          2.3450    -1.2800    -0.0450 c3         1 JGD       0.220600
      4 C04          0.2720    -0.0300     0.0230 ca         1 JGD       0.372000
      5 C05         -0.4790     1.1630     0.0680 ca         1 JGD      -0.253500
      6 C06         -1.8570     1.0970     0.0590 ca         1 JGD       0.369400
      7 N07         -2.5670    -0.0280     0.0100 nb         1 JGD      -0.704000
      8 C08         -1.8590    -1.1540    -0.0320 ca         1 JGD       0.369400
      9 C09         -0.4800    -1.2220    -0.0290 ca         1 JGD      -0.253500
     10 H011         2.0980     1.7730     1.0200 h1         1 JGD       0.038033
     11 H012         3.4130     1.0190     0.1250 h1         1 JGD       0.038033
     12 H013         2.1410     1.8700    -0.7440 h1         1 JGD       0.038033
     13 H032         2.1020    -1.8380    -0.9530 h1         1 JGD       0.038033
     14 H033         3.4130    -1.0810    -0.0560 h1         1 JGD       0.038033
     15 H031         2.1360    -1.9270     0.8110 h1         1 JGD       0.038033
     16 H051        -0.0040     2.1330     0.1090 ha         1 JGD       0.118000
     17 H061        -2.4240     2.0220     0.0920 h4         1 JGD       0.010100
     18 H081        -2.4260    -2.0790    -0.0710 h4         1 JGD       0.010100
     19 H091        -0.0060    -2.1920    -0.0650 ha         1 JGD       0.118000
@<TRIPOS>BOND
     1     1     2 1   
     2     1    10 1   
     3     1    11 1   
     4     1    12 1   
     5     2     3 1   
     6     2     4 1   
     7     3    13 1   
     8     3    14 1   
     9     3    15 1   
    10     4     5 ar  
    11     4     9 ar  
    12     5     6 ar  
    13     5    16 1   
    14     6     7 ar  
    15     6    17 1   
    16     7     8 ar  
    17     8     9 ar  
    18     8    18 1   
    19     9    19 1   
@<TRIPOS>SUBSTRUCTURE
     1 JGD         1 TEMP              0 ****  ****    0 ROOT
