@<TRIPOS>MOLECULE
JGE
   32    33     1     0     0
SMALL
abcg2


@<TRIPOS>ATOM
      1 C13          4.4890    -1.3870     0.5520 ca         1 JGE      -0.129500
      2 C15          2.8650    -2.1340    -1.0580 ca         1 JGE      -0.129500
      3 C17         -3.5270    -1.3030    -0.2980 c          1 JGE       0.724000
      4 C01         -3.3590    -0.4240     2.1030 c3         1 JGE      -0.053100
      5 C02         -2.5960    -0.7680     0.8240 c3         1 JGE      -0.175400
      6 C03         -1.7470     0.3870     0.3710 ca         1 JGE      -0.001300
      7 C04         -2.3250     1.5790    -0.0680 ca         1 JGE      -0.053000
      8 C05         -1.5400     2.6600    -0.4420 ca         1 JGE      -0.140000
      9 C06         -0.1570     2.5760    -0.3840 ca         1 JGE      -0.087000
     10 C07          0.4430     1.3920     0.0370 ca         1 JGE      -0.186600
     11 C08         -0.3610     0.3140     0.4140 ca         1 JGE      -0.089000
     12 C09          1.9230     1.3340     0.1400 c          1 JGE       0.600300
     13 C11          2.6180     0.0260    -0.0100 ca         1 JGE      -0.159600
     14 C12          3.7980    -0.1960     0.7000 ca         1 JGE      -0.064500
     15 C14          4.0250    -2.3570    -0.3290 ca         1 JGE      -0.100000
     16 C16          2.1580    -0.9510    -0.8930 ca         1 JGE      -0.064500
     17 O10          2.5690     2.3440     0.3490 o          1 JGE      -0.553100
     18 H131         5.3940    -1.5590     1.1200 ha         1 JGE       0.109500
     19 H151         2.5060    -2.8810    -1.7530 ha         1 JGE       0.109500
     20 H012        -2.6770    -0.0940     2.8890 hc         1 JGE       0.017367
     21 H013        -4.0820     0.3760     1.9350 hc         1 JGE       0.017367
     22 H011        -3.9020    -1.2910     2.4720 hc         1 JGE       0.017367
     23 H021        -1.9170    -1.5960     1.0640 hc         1 JGE       0.035700
     24 H041        -3.4030     1.6680    -0.1180 ha         1 JGE       0.124000
     25 H051        -2.0090     3.5730    -0.7860 ha         1 JGE       0.098000
     26 H061         0.4500     3.4220    -0.6770 ha         1 JGE       0.107000
     27 H081         0.0990    -0.5990     0.7730 ha         1 JGE       0.108000
     28 H121         4.1690     0.5580     1.3810 ha         1 JGE       0.131500
     29 H141         4.5680    -3.2860    -0.4470 ha         1 JGE       0.103000
     30 H161         1.2580    -0.7850    -1.4710 ha         1 JGE       0.131500
     31 O18         -3.2420    -0.9920    -1.4690 o          1 JGE      -0.724000
     32 O19         -4.4650    -2.0360     0.0700 o          1 JGE      -0.724000
@<TRIPOS>BOND
     1     1    14 ar  
     2     1    15 ar  
     3     1    18 1   
     4     2    15 ar  
     5     2    16 ar  
     6     2    19 1   
     7     3     5 1   
     8     3    31 1   
     9     3    32 1   
    10     4     5 1   
    11     4    20 1   
    12     4    21 1   
    13     4    22 1   
    14     5     6 1   
    15     5    23 1   
    16     6     7 ar  
    17     6    11 ar  
    18     7     8 ar  
    19     7    24 1   
    20     8     9 ar  
    21     8    25 1   
    22     9    10 ar  
    23     9    26 1   
    24    10    11 ar  
    25    10    12 1   
    26    11    27 1   
    27    12    13 1   
    28    12    17 2   
    29    13    14 ar  
    30    13    16 ar  
    31    14    28 1   
    32    15    29 1   
    33    16    30 1   
@<TRIPOS>SUBSTRUCTURE
     1 JGE         1 TEMP              0 ****  ****    0 ROOT
