@<TRIPOS>MOLECULE
JGE
   32    33     1     0     0
SMALL
No Charge or Current Charge


@<TRIPOS>ATOM
      1 C13          4.5360    -1.5050     0.4330 ca         1 JGE      -0.129500
      2 C15          2.7560    -2.2040    -1.0650 ca         1 JGE      -0.129500
      3 C17         -3.1490    -1.5090    -0.2140 c          1 JGE       0.724000
      4 C01         -3.7160    -0.2670     1.9550 c3         1 JGE      -0.053100
      5 C02         -2.5930    -0.6970     0.9790 c3         1 JGE      -0.175400
      6 C03         -1.7350     0.4770     0.4930 ca         1 JGE      -0.001300
      7 C04         -2.3220     1.6560    -0.0090 ca         1 JGE      -0.053000
      8 C05         -1.5170     2.7250    -0.4350 ca         1 JGE      -0.140000
      9 C06         -0.1180     2.6240    -0.3740 ca         1 JGE      -0.087000
     10 C07          0.4920     1.4450     0.1030 ca         1 JGE      -0.186600
     11 C08         -0.3290     0.3820     0.5470 ca         1 JGE      -0.089000
     12 C09          2.0010     1.3510     0.1750 c          1 JGE       0.600300
     13 C11          2.6700     0.0090    -0.0250 ca         1 JGE      -0.159600
     14 C12          3.8960    -0.2680     0.6200 ca         1 JGE      -0.064500
     15 C14          3.9650    -2.4750    -0.4060 ca         1 JGE      -0.100000
     16 C16          2.1120    -0.9680    -0.8810 ca         1 JGE      -0.064500
     17 O10          2.6740     2.3540     0.3920 o          1 JGE      -0.553100
     18 H131         5.4770    -1.7110     0.9400 ha         1 JGE       0.109500
     19 H151         2.3180    -2.9510    -1.7240 ha         1 JGE       0.109500
     20 H012        -3.2960     0.2940     2.7990 hc         1 JGE       0.017367
     21 H013        -4.4640     0.3630     1.4610 hc         1 JGE       0.017367
     22 H011        -4.2300    -1.1490     2.3560 hc         1 JGE       0.017367
     23 H021        -1.9450    -1.3750     1.5480 hc         1 JGE       0.035700
     24 H041        -3.4030     1.7490    -0.0720 ha         1 JGE       0.124000
     25 H051        -1.9790     3.6330    -0.8150 ha         1 JGE       0.098000
     26 H061         0.4920     3.4610    -0.7080 ha         1 JGE       0.107000
     27 H081         0.1260    -0.5200     0.9480 ha         1 JGE       0.108000
     28 H121         4.3510     0.4740     1.2730 ha         1 JGE       0.131500
     29 H141         4.4620    -3.4320    -0.5500 ha         1 JGE       0.103000
     30 H161         1.1860    -0.7700    -1.4170 ha         1 JGE       0.131500
     31 O18         -3.9260    -0.9640    -0.9870 o          1 JGE      -0.724000
     32 O19         -2.7700    -2.6630    -0.3500 o          1 JGE      -0.724000
@<TRIPOS>BOND
     1     1    14 ar  
     2     1    15 ar  
     3     1    18 1   
     4     2    15 ar  
     5     2    16 ar  
     6     2    19 1   
     7     3     5 1   
     8     3    31 1   
     9     3    32 1   
    10     4     5 1   
    11     4    20 1   
    12     4    21 1   
    13     4    22 1   
    14     5     6 1   
    15     5    23 1   
    16     6     7 ar  
    17     6    11 ar  
    18     7     8 ar  
    19     7    24 1   
    20     8     9 ar  
    21     8    25 1   
    22     9    10 ar  
    23     9    26 1   
    24    10    11 ar  
    25    10    12 1   
    26    11    27 1   
    27    12    13 1   
    28    12    17 2   
    29    13    14 ar  
    30    13    16 ar  
    31    14    28 1   
    32    15    29 1   
    33    16    30 1   
@<TRIPOS>SUBSTRUCTURE
     1 JGE         1 TEMP              0 ****  ****    0 ROOT
