@<TRIPOS>MOLECULE
JGF
   67    72     1     0     0
SMALL
abcg2


@<TRIPOS>ATOM
      1 FBO         -7.0950    -7.4300   -18.4830 f          1 JGF      -0.159000
      2 CBI         -7.0050    -6.6560   -17.3830 ca         1 JGF       0.169000
      3 CBJ         -6.7420    -5.3090   -17.5380 ca         1 JGF      -0.174000
      4 CBK         -6.6460    -4.5410   -16.3890 ca         1 JGF       0.187000
      5 FBN         -6.3830    -3.2200   -16.5230 f          1 JGF      -0.171000
      6 CBL         -6.8050    -5.0700   -15.1220 ca         1 JGF      -0.150000
      7 CBM         -7.0790    -6.4280   -15.0030 ca         1 JGF      -0.070000
      8 CAV         -7.1800    -7.2350   -16.1280 ca         1 JGF       0.049100
      9 OAU         -7.3540    -8.5860   -15.9640 os         1 JGF      -0.228200
     10 CAT         -8.4070    -9.2350   -16.5710 ca         1 JGF       0.139100
     11 CAS         -9.5640    -8.5820   -16.9720 ca         1 JGF      -0.148000
     12 CAR        -10.6180    -9.3090   -17.5080 ca         1 JGF      -0.105000
     13 CAQ        -10.5120   -10.6890   -17.6610 ca         1 JGF       0.227000
     14 NAW        -11.5780   -11.4120   -18.2710 nu         1 JGF      -0.875100
     15 SAX        -12.3000   -12.7090   -17.5290 s6         1 JGF       1.204100
     16 OAY        -11.2890   -13.7150   -17.3060 o          1 JGF      -0.533000
     17 OAZ        -13.4360   -13.0330   -18.3610 o          1 JGF      -0.533000
     18 CBA        -12.8610   -12.1420   -15.9280 c3         1 JGF      -0.349400
     19 CBB        -13.9260   -11.0600   -16.0110 c3         1 JGF      -0.064100
     20 CAP         -9.3450   -11.3350   -17.2630 ca         1 JGF      -0.087000
     21 CAJ         -8.2870   -10.6240   -16.7000 ca         1 JGF      -0.017800
     22 CAF         -7.0800   -11.3360   -16.2360 cc         1 JGF      -0.222000
     23 CAE         -7.1680   -12.3680   -15.3390 cd         1 JGF      -0.001400
     24 NAD         -6.0880   -13.0700   -14.8830 n          1 JGF      -0.283000
     25 CBC         -6.2860   -14.1530   -13.9170 c3         1 JGF       0.080300
     26 CAC         -4.7670   -12.8190   -15.2800 c          1 JGF       0.591600
     27 OBD         -3.8340   -13.4920   -14.8240 o          1 JGF      -0.550000
     28 CAB         -4.6520   -11.7540   -16.2300 cd         1 JGF      -0.248600
     29 CAI         -3.5310   -11.2040   -16.9290 cd         1 JGF      -0.116000
     30 CAA         -5.7670   -11.0620   -16.6660 cc         1 JGF       0.302800
     31 OAG         -5.4060   -10.1360   -17.5870 os         1 JGF      -0.219000
     32 CAH         -4.0310   -10.2310   -17.7420 cc         1 JGF       0.216500
     33 CAK         -3.4390    -9.3400   -18.6930 cc         1 JGF      -0.252500
     34 NAO         -2.1020    -9.3890   -19.0340 na         1 JGF      -0.293500
     35 CAL         -3.9600    -8.3140   -19.4500 cd         1 JGF       0.278900
     36 NAM         -2.9750    -7.7550   -20.2290 nd         1 JGF      -0.679000
     37 CAN         -1.8620    -8.4230   -19.9630 cc         1 JGF       0.432800
     38 CBE         -0.5420    -8.2000   -20.6020 cy         1 JGF      -0.117000
     39 CBF          0.0440    -9.4320   -21.3730 cy         1 JGF      -0.087900
     40 CBG          1.0750    -9.6470   -20.2370 cy         1 JGF      -0.097400
     41 CBH          0.7000    -8.2600   -19.6570 cy         1 JGF      -0.087900
     42 H1          -6.6100    -4.8800   -18.5210 ha         1 JGF       0.158000
     43 H2          -6.7210    -4.4360   -14.2510 ha         1 JGF       0.143000
     44 H3          -7.2120    -6.8800   -14.0290 ha         1 JGF       0.137000
     45 H4          -9.6560    -7.5120   -16.8480 ha         1 JGF       0.131000
     46 H5         -11.5250    -8.8010   -17.8070 ha         1 JGF       0.118000
     47 H6         -12.2730   -10.8290   -18.7250 hn         1 JGF       0.493000
     48 H7         -13.2240   -13.0460   -15.4360 h1         1 JGF       0.101700
     49 H8         -11.9630   -11.8060   -15.4080 h1         1 JGF       0.101700
     50 H9         -14.2180   -10.7740   -15.0000 hc         1 JGF       0.047700
     51 H10        -13.5530   -10.1710   -16.5190 hc         1 JGF       0.047700
     52 H11        -14.8100   -11.4190   -16.5360 hc         1 JGF       0.047700
     53 H12         -9.2460   -12.4000   -17.4030 ha         1 JGF       0.156000
     54 H13         -8.1220   -12.6700   -14.9350 h4         1 JGF       0.208000
     55 H14         -7.3470   -14.2420   -13.7040 h1         1 JGF       0.057367
     56 H15         -5.9130   -15.0890   -14.3290 h1         1 JGF       0.057367
     57 H16         -5.7420   -13.9340   -12.9990 h1         1 JGF       0.057367
     58 H17         -2.4980   -11.4970   -16.8390 ha         1 JGF       0.150000
     59 H18         -1.4260   -10.0420   -18.6680 hn         1 JGF       0.356000
     60 H19         -4.9760    -7.9580   -19.4630 h4         1 JGF       0.051100
     61 H21         -0.6260    -7.2920   -21.1970 hc         1 JGF       0.093700
     62 H22         -0.6530   -10.2460   -21.5670 hc         1 JGF       0.057700
     63 H23          0.5040    -9.1280   -22.3120 hc         1 JGF       0.057700
     64 H24          0.8010   -10.4680   -19.5720 hc         1 JGF       0.048700
     65 H25          2.1120    -9.7830   -20.5420 hc         1 JGF       0.048700
     66 H26          1.4250    -7.4870   -19.9090 hc         1 JGF       0.057700
     67 H27          0.4920    -8.2120   -18.5890 hc         1 JGF       0.057700
@<TRIPOS>BOND
     1     1     2 1   
     2     2     3 ar  
     3     2     8 ar  
     4     3     4 ar  
     5     3    42 1   
     6     4     5 1   
     7     4     6 ar  
     8     6     7 ar  
     9     6    43 1   
    10     7     8 ar  
    11     7    44 1   
    12     8     9 1   
    13     9    10 1   
    14    10    11 ar  
    15    10    21 ar  
    16    11    12 ar  
    17    11    45 1   
    18    12    13 ar  
    19    12    46 1   
    20    13    14 1   
    21    13    20 ar  
    22    14    15 1   
    23    14    47 1   
    24    15    16 2   
    25    15    17 2   
    26    15    18 1   
    27    18    19 1   
    28    18    48 1   
    29    18    49 1   
    30    19    50 1   
    31    19    51 1   
    32    19    52 1   
    33    20    21 ar  
    34    20    53 1   
    35    21    22 1   
    36    22    23 2   
    37    22    30 1   
    38    23    24 1   
    39    23    54 1   
    40    24    25 1   
    41    24    26 1   
    42    25    55 1   
    43    25    56 1   
    44    25    57 1   
    45    26    27 2   
    46    26    28 1   
    47    28    29 1   
    48    28    30 2   
    49    29    32 2   
    50    29    58 1   
    51    30    31 1   
    52    31    32 1   
    53    32    33 1   
    54    33    34 1   
    55    33    35 2   
    56    34    37 1   
    57    34    59 1   
    58    35    36 1   
    59    35    60 1   
    60    36    37 2   
    61    37    38 1   
    62    38    39 1   
    63    38    41 1   
    64    38    61 1   
    65    39    40 1   
    66    39    62 1   
    67    39    63 1   
    68    40    41 1   
    69    40    64 1   
    70    40    65 1   
    71    41    66 1   
    72    41    67 1   
@<TRIPOS>SUBSTRUCTURE
     1 JGF         1 TEMP              0 ****  ****    0 ROOT
