@<TRIPOS>MOLECULE
JGF
   67    72     1     0     0
SMALL
No Charge or Current Charge


@<TRIPOS>ATOM
      1 FBO         -7.5020    -7.8830   -19.1910 f          1 JGF      -0.159000
      2 CBI         -7.1130    -6.9410   -18.3010 ca         1 JGF       0.169000
      3 CBJ         -6.7160    -5.6830   -18.7810 ca         1 JGF      -0.174000
      4 CBK         -6.2740    -4.7020   -17.8830 ca         1 JGF       0.187000
      5 FBN         -5.8900    -3.4930   -18.3460 f          1 JGF      -0.171000
      6 CBL         -6.2210    -4.9700   -16.5060 ca         1 JGF      -0.150000
      7 CBM         -6.6170    -6.2300   -16.0210 ca         1 JGF      -0.070000
      8 CAV         -7.0760    -7.2170   -16.9120 ca         1 JGF       0.049100
      9 OAU         -7.4360    -8.4460   -16.3950 os         1 JGF      -0.228200
     10 CAT         -8.5470    -9.1490   -16.8060 ca         1 JGF       0.139100
     11 CAS         -9.7320    -8.4490   -17.1110 ca         1 JGF      -0.148000
     12 CAR        -10.9060    -9.1450   -17.4340 ca         1 JGF      -0.105000
     13 CAQ        -10.9250   -10.5470   -17.4330 ca         1 JGF       0.227000
     14 NAW        -12.1230   -11.1910   -17.7520 nu         1 JGF      -0.875100
     15 SAX        -12.6730   -12.6930   -17.3000 s6         1 JGF       1.204100
     16 OAY        -11.7510   -13.6680   -17.8860 o          1 JGF      -0.533000
     17 OAZ        -14.0900   -12.6970   -17.6690 o          1 JGF      -0.533000
     18 CBA        -12.5320   -12.7330   -15.5050 c3         1 JGF      -0.349400
     19 CBB        -13.3170   -11.6110   -14.7810 c3         1 JGF      -0.064100
     20 CAP         -9.7430   -11.2470   -17.1160 ca         1 JGF      -0.087000
     21 CAJ         -8.5410   -10.5690   -16.8010 ca         1 JGF      -0.017800
     22 CAF         -7.3380   -11.3610   -16.4650 cc         1 JGF      -0.222000
     23 CAE         -7.5440   -12.4520   -15.6320 cd         1 JGF      -0.001400
     24 NAD         -6.4860   -13.2370   -15.1440 n          1 JGF      -0.283000
     25 CBC         -6.7710   -14.4010   -14.2730 c3         1 JGF       0.080300
     26 CAC         -5.1290   -12.9510   -15.4380 c          1 JGF       0.591600
     27 OBD         -4.1980   -13.6240   -15.0150 o          1 JGF      -0.550000
     28 CAB         -4.9300   -11.7760   -16.2990 cd         1 JGF      -0.248600
     29 CAI         -3.7540   -11.1870   -16.8160 cd         1 JGF      -0.116000
     30 CAA         -5.9710   -11.0370   -16.7550 cc         1 JGF       0.302800
     31 OAG         -5.5400   -10.0280   -17.5840 os         1 JGF      -0.219000
     32 CAH         -4.1690   -10.1320   -17.5860 cc         1 JGF       0.216500
     33 CAK         -3.3280    -9.2370   -18.3240 cc         1 JGF      -0.252500
     34 NAO         -1.9520    -9.2590   -18.3780 na         1 JGF      -0.293500
     35 CAL         -3.7380    -8.2000   -19.1130 cd         1 JGF       0.278900
     36 NAM         -2.6280    -7.5770   -19.6530 nd         1 JGF      -0.679000
     37 CAN         -1.5620    -8.2280   -19.2000 cc         1 JGF       0.432800
     38 CBE         -0.1540    -7.8470   -19.5680 cy         1 JGF      -0.117000
     39 CBF          0.3860    -8.1300   -21.0160 cy         1 JGF      -0.087900
     40 CBG          0.9060    -9.4870   -20.4380 cy         1 JGF      -0.097400
     41 CBH          1.0760    -8.7050   -19.0960 cy         1 JGF      -0.087900
     42 H1          -6.7440    -5.4730   -19.8470 ha         1 JGF       0.158000
     43 H2          -5.8710    -4.2040   -15.8190 ha         1 JGF       0.143000
     44 H3          -6.5730    -6.4420   -14.9550 ha         1 JGF       0.137000
     45 H4          -9.7500    -7.3630   -17.0820 ha         1 JGF       0.131000
     46 H5         -11.8090    -8.5880   -17.6710 ha         1 JGF       0.118000
     47 H6         -12.9530   -10.6240   -17.8630 hn         1 JGF       0.493000
     48 H7         -12.9000   -13.7180   -15.2000 h1         1 JGF       0.101700
     49 H8         -11.4630   -12.6630   -15.2780 h1         1 JGF       0.101700
     50 H9         -13.2050   -11.7110   -13.6940 hc         1 JGF       0.047700
     51 H10        -12.9450   -10.6190   -15.0670 hc         1 JGF       0.047700
     52 H11        -14.3870   -11.6620   -15.0170 hc         1 JGF       0.047700
     53 H12         -9.7410   -12.3290   -17.1520 ha         1 JGF       0.156000
     54 H13         -8.5170   -12.7690   -15.2660 h4         1 JGF       0.208000
     55 H14         -7.8510   -14.5520   -14.1610 h1         1 JGF       0.057367
     56 H15         -6.3330   -15.3070   -14.7110 h1         1 JGF       0.057367
     57 H16         -6.3320   -14.2350   -13.2810 h1         1 JGF       0.057367
     58 H17         -2.7320   -11.5100   -16.6520 ha         1 JGF       0.150000
     59 H18         -1.3240    -9.9020   -17.9110 hn         1 JGF       0.356000
     60 H19         -4.7460    -7.8710   -19.3280 h4         1 JGF       0.051100
     61 H21         -0.0880    -6.7950   -19.2720 hc         1 JGF       0.093700
     62 H22         -0.3700    -8.2040   -21.8050 hc         1 JGF       0.057700
     63 H23          1.1740    -7.4450   -21.3510 hc         1 JGF       0.057700
     64 H24          0.1600   -10.2900   -20.4120 hc         1 JGF       0.048700
     65 H25          1.8260    -9.8780   -20.8860 hc         1 JGF       0.048700
     66 H26          2.0160    -8.1450   -19.0130 hc         1 JGF       0.057700
     67 H27          0.9440    -9.2880   -18.1780 hc         1 JGF       0.057700
@<TRIPOS>BOND
     1     1     2 1   
     2     2     3 ar  
     3     2     8 ar  
     4     3     4 ar  
     5     3    42 1   
     6     4     5 1   
     7     4     6 ar  
     8     6     7 ar  
     9     6    43 1   
    10     7     8 ar  
    11     7    44 1   
    12     8     9 1   
    13     9    10 1   
    14    10    11 ar  
    15    10    21 ar  
    16    11    12 ar  
    17    11    45 1   
    18    12    13 ar  
    19    12    46 1   
    20    13    14 1   
    21    13    20 ar  
    22    14    15 1   
    23    14    47 1   
    24    15    16 2   
    25    15    17 2   
    26    15    18 1   
    27    18    19 1   
    28    18    48 1   
    29    18    49 1   
    30    19    50 1   
    31    19    51 1   
    32    19    52 1   
    33    20    21 ar  
    34    20    53 1   
    35    21    22 1   
    36    22    23 2   
    37    22    30 1   
    38    23    24 1   
    39    23    54 1   
    40    24    25 1   
    41    24    26 1   
    42    25    55 1   
    43    25    56 1   
    44    25    57 1   
    45    26    27 2   
    46    26    28 1   
    47    28    29 1   
    48    28    30 2   
    49    29    32 2   
    50    29    58 1   
    51    30    31 1   
    52    31    32 1   
    53    32    33 1   
    54    33    34 1   
    55    33    35 2   
    56    34    37 1   
    57    34    59 1   
    58    35    36 1   
    59    35    60 1   
    60    36    37 2   
    61    37    38 1   
    62    38    39 1   
    63    38    41 1   
    64    38    61 1   
    65    39    40 1   
    66    39    62 1   
    67    39    63 1   
    68    40    41 1   
    69    40    64 1   
    70    40    65 1   
    71    41    66 1   
    72    41    67 1   
@<TRIPOS>SUBSTRUCTURE
     1 JGF         1 TEMP              0 ****  ****    0 ROOT
