@<TRIPOS>MOLECULE
JGG
   33    34     1     0     0
SMALL
No Charge or Current Charge


@<TRIPOS>ATOM
      1 C13         -4.7100    -0.0280    -1.4900 c6         1 JGG       0.142100
      2 C15         -3.9630     1.9770    -0.4400 c6         1 JGG       0.142100
      3 C01          2.1930    -1.3690    -0.0360 ca         1 JGG      -0.103000
      4 C02          3.3120    -1.1230    -0.8500 ca         1 JGG      -0.069000
      5 C03          4.0800     0.0430    -0.6640 ca         1 JGG      -0.020000
      6 C04          3.7180     0.9600     0.3410 ca         1 JGG      -0.069000
      7 C05          2.5980     0.7120     1.1540 ca         1 JGG      -0.103000
      8 C06          1.8300    -0.4540     0.9710 ca         1 JGG      -0.071300
      9 C07          0.6140    -0.7200     1.8480 c3         1 JGG       0.164300
     10 N08         -0.6050    -0.1760     1.2490 ns         1 JGG      -0.526900
     11 C09         -1.4820    -0.8900     0.4720 c          1 JGG       0.650100
     12 O10         -1.3200    -2.0770     0.2400 o          1 JGG      -0.630100
     13 N11         -2.5790    -0.1690    -0.0420 n          1 JGG      -0.414800
     14 C12         -3.6870    -0.9090    -0.7300 c6         1 JGG       0.061500
     15 O14         -5.0830     1.1140    -0.7000 os         1 JGG      -0.441000
     16 C16         -2.8780     1.2400     0.3890 c6         1 JGG       0.061500
     17 N18          6.1570     0.5080    -2.1660 n1         1 JGG      -0.456000
     18 H132        -4.2740     0.3170    -2.4390 h1         1 JGG       0.054450
     19 H131        -5.6080    -0.6160    -1.7260 h1         1 JGG       0.054450
     20 H151        -3.5370     2.3110    -1.3970 h1         1 JGG       0.054450
     21 H152        -4.3090     2.8670     0.1040 h1         1 JGG       0.054450
     22 H011         1.6040    -2.2710    -0.1890 ha         1 JGG       0.117500
     23 H021         3.5800    -1.8390    -1.6250 ha         1 JGG       0.125000
     24 H041         4.3020     1.8660     0.4930 ha         1 JGG       0.125000
     25 H051         2.3260     1.4300     1.9260 ha         1 JGG       0.117500
     26 H071         0.5000    -1.8000     2.0120 h1         1 JGG       0.059200
     27 H072         0.7600    -0.2520     2.8310 h1         1 JGG       0.059200
     28 H081        -0.8110     0.8030     1.3870 hn         1 JGG       0.315500
     29 H121        -4.2290    -1.4940     0.0270 h1         1 JGG       0.054700
     30 H122        -3.2580    -1.6290    -1.4410 h1         1 JGG       0.054700
     31 H162        -1.9610     1.8440     0.3440 h1         1 JGG       0.054700
     32 H161        -3.2010     1.2180     1.4400 h1         1 JGG       0.054700
     33 C17          5.2240     0.2960    -1.4960 cg         1 JGG       0.325000
@<TRIPOS>BOND
     1     1    14 1   
     2     1    15 1   
     3     1    18 1   
     4     1    19 1   
     5     2    15 1   
     6     2    16 1   
     7     2    20 1   
     8     2    21 1   
     9     3     4 ar  
    10     3     8 ar  
    11     3    22 1   
    12     4     5 ar  
    13     4    23 1   
    14     5     6 ar  
    15     5    33 1   
    16     6     7 ar  
    17     6    24 1   
    18     7     8 ar  
    19     7    25 1   
    20     8     9 1   
    21     9    10 1   
    22     9    26 1   
    23     9    27 1   
    24    10    11 1   
    25    10    28 1   
    26    11    12 2   
    27    11    13 1   
    28    13    14 1   
    29    13    16 1   
    30    14    29 1   
    31    14    30 1   
    32    16    31 1   
    33    16    32 1   
    34    17    33 3   
@<TRIPOS>SUBSTRUCTURE
     1 JGG         1 TEMP              0 ****  ****    0 ROOT
