@<TRIPOS>MOLECULE
JGG
   33    34     1     0     0
SMALL
bcc


@<TRIPOS>ATOM
      1 C13         -4.1330     0.4290    -1.7020 c6         1 JGG       0.118900
      2 C15         -3.9920     1.9250     0.0560 c6         1 JGG       0.118900
      3 C01          2.7160    -1.5050     0.7190 ca         1 JGG      -0.121000
      4 C02          3.7780    -1.3100    -0.1460 ca         1 JGG      -0.087000
      5 C03          3.8470    -0.1360    -0.8940 ca         1 JGG      -0.020000
      6 C04          2.8520     0.8350    -0.7680 ca         1 JGG      -0.087000
      7 C05          1.7990     0.6250     0.1040 ca         1 JGG      -0.121000
      8 C06          1.7180    -0.5450     0.8550 ca         1 JGG      -0.071300
      9 C07          0.5990    -0.7670     1.8440 c3         1 JGG       0.164300
     10 N08         -0.6550    -0.1710     1.4710 ns         1 JGG      -0.593900
     11 C09         -1.3440    -0.6480     0.4010 c          1 JGG       0.784100
     12 O10         -0.9280    -1.6200    -0.2210 o          1 JGG      -0.630100
     13 N11         -2.4920     0.0070     0.0440 n          1 JGG      -0.481800
     14 C12         -3.3600    -0.6260    -0.9360 c6         1 JGG       0.061500
     15 O14         -4.8610     1.2710    -0.8360 os         1 JGG      -0.394600
     16 C16         -3.1930     0.9470     0.9020 c6         1 JGG       0.061500
     17 N18          5.8080     0.2450    -2.5250 n1         1 JGG      -0.366800
     18 H132        -3.4380     1.0180    -2.3160 h1         1 JGG       0.054450
     19 H131        -4.8480    -0.0540    -2.3700 h1         1 JGG       0.054450
     20 H151        -3.2940     2.5750    -0.4910 h1         1 JGG       0.054450
     21 H152        -4.5970     2.5550     0.7090 h1         1 JGG       0.054450
     22 H011         2.6640    -2.4230     1.2920 ha         1 JGG       0.135500
     23 H021         4.5460    -2.0660    -0.2480 ha         1 JGG       0.143000
     24 H041         2.9050     1.7460    -1.3490 ha         1 JGG       0.143000
     25 H051         1.0300     1.3800     0.1930 ha         1 JGG       0.135500
     26 H071         0.4790    -1.8380     2.0190 h1         1 JGG       0.059200
     27 H072         0.8870    -0.3290     2.8010 h1         1 JGG       0.059200
     28 H081        -0.9410     0.6540     1.9660 hn         1 JGG       0.315500
     29 H121        -4.0580    -1.3130    -0.4410 h1         1 JGG       0.054700
     30 H122        -2.7650    -1.2070    -1.6360 h1         1 JGG       0.054700
     31 H162        -2.5020     1.5450     1.4950 h1         1 JGG       0.054700
     32 H161        -3.8540     0.4170     1.5980 h1         1 JGG       0.054700
     33 C17          4.9320     0.0730    -1.7950 cg         1 JGG       0.235800
@<TRIPOS>BOND
     1     1    14 1   
     2     1    15 1   
     3     1    18 1   
     4     1    19 1   
     5     2    15 1   
     6     2    16 1   
     7     2    20 1   
     8     2    21 1   
     9     3     4 ar  
    10     3     8 ar  
    11     3    22 1   
    12     4     5 ar  
    13     4    23 1   
    14     5     6 ar  
    15     5    33 1   
    16     6     7 ar  
    17     6    24 1   
    18     7     8 ar  
    19     7    25 1   
    20     8     9 1   
    21     9    10 1   
    22     9    26 1   
    23     9    27 1   
    24    10    11 1   
    25    10    28 1   
    26    11    12 2   
    27    11    13 1   
    28    13    14 1   
    29    13    16 1   
    30    14    29 1   
    31    14    30 1   
    32    16    31 1   
    33    16    32 1   
    34    17    33 3   
@<TRIPOS>SUBSTRUCTURE
     1 JGG         1 TEMP              0 ****  ****    0 ROOT
