@<TRIPOS>MOLECULE
JGI
   51    54     1     0     0
SMALL
bcc


@<TRIPOS>ATOM
      1 C4          91.8610    -8.3360    15.1200 cc         1 JGI      -0.105900
      2 C5          92.4160    -7.0940    15.4330 cd         1 JGI      -0.316900
      3 C6          92.3050    -9.4640    14.2510 c          1 JGI       0.703700
      4 N12         98.8090   -11.6640    12.0140 ns         1 JGI      -0.472100
      5 C13         96.5250   -10.9810    12.3430 ca         1 JGI      -0.133600
      6 C15         94.3490   -10.4210    13.2540 ca         1 JGI       0.068600
      7 C20         95.9660   -12.0570    11.6580 ca         1 JGI      -0.135000
      8 C21         94.6090   -12.3030    11.7800 ca         1 JGI      -0.116000
      9 C22         93.7950   -11.5080    12.5730 ca         1 JGI      -0.134000
     10 C24        100.8930   -12.8200    12.1590 ca         1 JGI      -0.162000
     11 C26        102.2700   -12.8790    12.0290 ca         1 JGI      -0.104500
     12 C28         94.0370    -3.3100    14.1310 cy         1 JGI      -0.117400
     13 C1          93.7470    -6.5500    15.1040 c          1 JGI       0.732700
     14 N2          93.8310    -5.2370    14.9270 nj         1 JGI      -0.469800
     15 O3          94.7520    -7.2670    15.0250 o          1 JGI      -0.640100
     16 N7          90.6470    -8.3600    15.7110 na         1 JGI       0.158400
     17 N8          90.3910    -7.2490    16.3840 nc         1 JGI      -0.514800
     18 C9          91.4370    -6.4700    16.2190 cd         1 JGI       0.327200
     19 N11         93.6390    -9.5490    14.0810 ns         1 JGI      -0.467100
     20 O14         91.4850   -10.2200    13.7590 o          1 JGI      -0.602100
     21 C16         95.7150   -10.1650    13.1190 ca         1 JGI      -0.121000
     22 O17         98.3470    -9.4680    12.3820 o          1 JGI      -0.575100
     23 C18        100.2040   -11.6360    11.8870 ca         1 JGI       0.070600
     24 C19         89.6390    -9.4050    15.7240 c3         1 JGI       0.041600
     25 C23        100.9210   -10.5110    11.4760 ca         1 JGI      -0.162000
     26 C25        102.3020   -10.5840    11.3560 ca         1 JGI      -0.104500
     27 C27        102.9870   -11.7580    11.6330 ca         1 JGI      -0.153000
     28 C29         92.8690    -4.1670    14.6560 cy         1 JGI       0.100500
     29 C30         94.9890    -4.4710    14.4820 cy         1 JGI       0.100500
     30 H1          98.4110   -12.5880    12.0880 hn         1 JGI       0.320500
     31 H2          96.5630   -12.6860    11.0090 ha         1 JGI       0.133000
     32 H3          94.1660   -13.1330    11.2440 ha         1 JGI       0.135000
     33 H4          92.7460   -11.7390    12.6520 ha         1 JGI       0.165000
     34 H6         102.7830   -13.8070    12.2450 ha         1 JGI       0.130000
     35 H7          93.9820    -3.0840    13.0690 hc         1 JGI       0.064700
     36 H8          94.2110    -2.3910    14.6850 hc         1 JGI       0.064700
     37 H9          91.4730    -5.5040    16.6980 h4         1 JGI       0.044100
     38 H10         94.2010    -8.8210    14.5420 hn         1 JGI       0.380500
     39 H11         96.1530    -9.3190    13.6330 ha         1 JGI       0.168000
     40 H12         88.9240    -9.1410    16.4970 h1         1 JGI       0.070367
     41 H13         89.1280    -9.4680    14.7670 h1         1 JGI       0.070367
     42 H14         90.0810   -10.3680    15.9600 h1         1 JGI       0.070367
     43 H15        100.4190    -9.5870    11.2410 ha         1 JGI       0.142500
     44 H16        102.8450    -9.7040    11.0360 ha         1 JGI       0.130000
     45 H17        104.0640   -11.8010    11.5360 ha         1 JGI       0.132000
     46 H18         92.1060    -4.4380    13.9250 h1         1 JGI       0.062450
     47 H19         92.3850    -3.7740    15.5490 h1         1 JGI       0.062450
     48 H20         95.7060    -4.2680    15.2780 h1         1 JGI       0.062450
     49 H21         95.5140    -4.9260    13.6400 h1         1 JGI       0.062450
     50 C10         97.9740   -10.6190    12.2460 c          1 JGI       0.686700
     51 H5         100.3450   -13.7000    12.4750 ha         1 JGI       0.142500
@<TRIPOS>BOND
     1     1     2 2   
     2     1     3 1   
     3     1    16 1   
     4     2    13 1   
     5     2    18 1   
     6     3    19 1   
     7     3    20 2   
     8     4    23 1   
     9     4    30 1   
    10     4    50 1   
    11     5     7 ar  
    12     5    21 ar  
    13     5    50 1   
    14     6     9 ar  
    15     6    19 1   
    16     6    21 ar  
    17     7     8 ar  
    18     7    31 1   
    19     8     9 ar  
    20     8    32 1   
    21     9    33 1   
    22    10    11 ar  
    23    10    23 ar  
    24    10    51 1   
    25    11    27 ar  
    26    11    34 1   
    27    12    28 1   
    28    12    29 1   
    29    12    35 1   
    30    12    36 1   
    31    13    14 1   
    32    13    15 2   
    33    14    28 1   
    34    14    29 1   
    35    16    17 1   
    36    16    24 1   
    37    17    18 2   
    38    18    37 1   
    39    19    38 1   
    40    21    39 1   
    41    22    50 2   
    42    23    25 ar  
    43    24    40 1   
    44    24    41 1   
    45    24    42 1   
    46    25    26 ar  
    47    25    43 1   
    48    26    27 ar  
    49    26    44 1   
    50    27    45 1   
    51    28    46 1   
    52    28    47 1   
    53    29    48 1   
    54    29    49 1   
@<TRIPOS>SUBSTRUCTURE
     1 JGI         1 TEMP              0 ****  ****    0 ROOT
