@<TRIPOS>MOLECULE
JGI
   51    54     1     0     0
SMALL
No Charge or Current Charge


@<TRIPOS>ATOM
      1 C4          91.4820    -8.2590    14.8790 cc         1 JGI      -0.156600
      2 C5          91.9800    -6.9510    15.0250 cd         1 JGI      -0.251600
      3 C6          92.0920    -9.5350    14.3560 c          1 JGI       0.636700
      4 N12         98.9050   -11.5220    12.0250 ns         1 JGI      -0.146000
      5 C13         96.6280   -11.0470    12.8430 ca         1 JGI      -0.133600
      6 C15         94.3550   -10.5350    13.6530 ca         1 JGI      -0.024000
      7 C20         96.2730   -12.4160    12.7760 ca         1 JGI      -0.117000
      8 C21         94.9860   -12.8360    13.1460 ca         1 JGI      -0.098000
      9 C22         94.0300   -11.9070    13.5840 ca         1 JGI      -0.116000
     10 C24        100.8520   -12.6710    11.1620 ca         1 JGI      -0.144000
     11 C26        102.1870   -12.6990    10.7240 ca         1 JGI      -0.086500
     12 C28         94.8090    -3.5750    14.7550 cy         1 JGI      -0.117400
     13 C1          93.2820    -6.3240    14.6120 c          1 JGI       0.665700
     14 N2          93.3020    -4.9770    15.1010 nj         1 JGI      -0.402800
     15 O3          94.0990    -6.9530    13.9530 o          1 JGI      -0.640100
     16 N7          90.1770    -8.1480    15.3880 na         1 JGI       0.179800
     17 N8          89.8570    -6.9070    15.8750 nc         1 JGI      -0.514800
     18 C9          90.9450    -6.2140    15.6500 cd         1 JGI       0.261900
     19 N11         93.4480    -9.5290    14.0930 ns         1 JGI      -0.141000
     20 O14         91.4150   -10.5460    14.2020 o          1 JGI      -0.602100
     21 C16         95.6510   -10.1230    13.2870 ca         1 JGI      -0.103000
     22 O17         98.2970    -9.3550    12.5260 o          1 JGI      -0.575100
     23 C18        100.2610   -11.4670    11.5950 ca         1 JGI      -0.022000
     24 C19         89.1610    -9.2130    15.4790 c3         1 JGI       0.070900
     25 C23        101.0370   -10.2860    11.5870 ca         1 JGI      -0.144000
     26 C25        102.3730   -10.3150    11.1490 ca         1 JGI      -0.086500
     27 C27        102.9480   -11.5200    10.7170 ca         1 JGI      -0.135000
     28 C29         93.7020    -4.2250    13.8640 cy         1 JGI       0.100500
     29 C30         94.7030    -4.8640    15.6320 cy         1 JGI       0.100500
     30 H1          98.5180   -12.4550    12.0140 hn         1 JGI       0.154000
     31 H2          96.9810   -13.1720    12.4440 ha         1 JGI       0.115000
     32 H3          94.7270   -13.8920    13.0960 ha         1 JGI       0.117000
     33 H4          93.0510   -12.2760    13.8730 ha         1 JGI       0.147000
     34 H6         102.6310   -13.6350    10.3900 ha         1 JGI       0.112000
     35 H7          95.7750    -3.4020    14.2700 hc         1 JGI       0.064700
     36 H8          94.4940    -2.6580    15.2650 hc         1 JGI       0.064700
     37 H9          90.9420    -5.1680    15.9320 h4         1 JGI       0.044100
     38 H10         93.8840    -8.6320    14.2450 hn         1 JGI       0.214000
     39 H11         95.9010    -9.0640    13.3460 ha         1 JGI       0.150000
     40 H12         88.2470    -8.8250    15.9450 h1         1 JGI       0.070367
     41 H13         88.9220    -9.5790    14.4740 h1         1 JGI       0.070367
     42 H14         89.5490   -10.0380    16.0880 h1         1 JGI       0.070367
     43 H15        100.6290    -9.3360    11.9170 ha         1 JGI       0.124500
     44 H16        102.9630    -9.4010    11.1450 ha         1 JGI       0.112000
     45 H17        103.9820   -11.5410    10.3780 ha         1 JGI       0.114000
     46 H18         94.0970    -4.7990    13.0160 h1         1 JGI       0.062450
     47 H19         92.9370    -3.5210    13.5200 h1         1 JGI       0.062450
     48 H20         94.7420    -4.6730    16.7100 h1         1 JGI       0.062450
     49 H21         95.4240    -5.6450    15.3600 h1         1 JGI       0.062450
     50 C10         98.0120   -10.5470    12.4560 c          1 JGI       0.619700
     51 H5         100.2730   -13.5920    11.1620 ha         1 JGI       0.124500
@<TRIPOS>BOND
     1     1     2 2   
     2     1     3 1   
     3     1    16 1   
     4     2    13 1   
     5     2    18 1   
     6     3    19 1   
     7     3    20 2   
     8     4    23 1   
     9     4    30 1   
    10     4    50 1   
    11     5     7 ar  
    12     5    21 ar  
    13     5    50 1   
    14     6     9 ar  
    15     6    19 1   
    16     6    21 ar  
    17     7     8 ar  
    18     7    31 1   
    19     8     9 ar  
    20     8    32 1   
    21     9    33 1   
    22    10    11 ar  
    23    10    23 ar  
    24    10    51 1   
    25    11    27 ar  
    26    11    34 1   
    27    12    28 1   
    28    12    29 1   
    29    12    35 1   
    30    12    36 1   
    31    13    14 1   
    32    13    15 2   
    33    14    28 1   
    34    14    29 1   
    35    16    17 1   
    36    16    24 1   
    37    17    18 2   
    38    18    37 1   
    39    19    38 1   
    40    21    39 1   
    41    22    50 2   
    42    23    25 ar  
    43    24    40 1   
    44    24    41 1   
    45    24    42 1   
    46    25    26 ar  
    47    25    43 1   
    48    26    27 ar  
    49    26    44 1   
    50    27    45 1   
    51    28    46 1   
    52    28    47 1   
    53    29    48 1   
    54    29    49 1   
@<TRIPOS>SUBSTRUCTURE
     1 JGI         1 TEMP              0 ****  ****    0 ROOT
