@<TRIPOS>MOLECULE
JGJ
   29    29     1     0     0
SMALL
No Charge or Current Charge


@<TRIPOS>ATOM
      1 C10          1.9080     0.5230    -0.0520 c          1 JGJ       0.600100
      2 C01         -0.5340     1.8770     1.6030 c3         1 JGJ      -0.106100
      3 C02         -0.5290     1.0720     0.2860 c3         1 JGJ       0.165000
      4 C03         -1.8310     0.3030     0.0710 ca         1 JGJ      -0.103300
      5 C04         -2.5960     0.5240    -1.0920 ca         1 JGJ      -0.099000
      6 C05         -3.7930    -0.1830    -1.3020 ca         1 JGJ      -0.111500
      7 C06         -4.2350    -1.1180    -0.3520 ca         1 JGJ      -0.104000
      8 C07         -3.4770    -1.3480     0.8070 ca         1 JGJ      -0.111500
      9 C08         -2.2790    -0.6430     1.0190 ca         1 JGJ      -0.099000
     10 N09          0.6080     0.1560     0.2300 ns         1 JGJ      -0.515900
     11 O11          2.2130     1.6850    -0.2980 o          1 JGJ      -0.572100
     12 C12          2.9230    -0.6510    -0.0340 c3         1 JGJ       0.073600
     13 O13          4.2770    -0.2340    -0.3380 os         1 JGJ      -0.415000
     14 C14          5.2450    -1.2970    -0.3300 c3         1 JGJ       0.140900
     15 H011         0.3680     2.4950     1.6840 hc         1 JGJ       0.044700
     16 H012        -1.4040     2.5430     1.6380 hc         1 JGJ       0.044700
     17 H021        -0.4190     1.7920    -0.5370 h1         1 JGJ       0.078700
     18 H041        -2.2650     1.2450    -1.8370 ha         1 JGJ       0.114000
     19 H051        -4.3780    -0.0050    -2.2020 ha         1 JGJ       0.114500
     20 H061        -5.1610    -1.6650    -0.5150 ha         1 JGJ       0.114000
     21 H071        -3.8160    -2.0750     1.5430 ha         1 JGJ       0.114500
     22 H081        -1.7010    -0.8350     1.9200 ha         1 JGJ       0.114000
     23 H091         0.4360    -0.8270     0.4050 hn         1 JGJ       0.311500
     24 H121         2.8780    -1.1120     0.9610 h1         1 JGJ       0.033200
     25 H122         2.5790    -1.3970    -0.7620 h1         1 JGJ       0.033200
     26 H142         5.2920    -1.7750     0.6570 h1         1 JGJ       0.031033
     27 H143         4.9910    -2.0620    -1.0760 h1         1 JGJ       0.031033
     28 H141         6.2420    -0.9060    -0.5680 h1         1 JGJ       0.031033
     29 H013        -0.5720     1.2130     2.4740 hc         1 JGJ       0.044700
@<TRIPOS>BOND
     1     1    10 1   
     2     1    11 2   
     3     1    12 1   
     4     2     3 1   
     5     2    15 1   
     6     2    16 1   
     7     2    29 1   
     8     3     4 1   
     9     3    10 1   
    10     3    17 1   
    11     4     5 ar  
    12     4     9 ar  
    13     5     6 ar  
    14     5    18 1   
    15     6     7 ar  
    16     6    19 1   
    17     7     8 ar  
    18     7    20 1   
    19     8     9 ar  
    20     8    21 1   
    21     9    22 1   
    22    10    23 1   
    23    12    13 1   
    24    12    24 1   
    25    12    25 1   
    26    13    14 1   
    27    14    26 1   
    28    14    27 1   
    29    14    28 1   
@<TRIPOS>SUBSTRUCTURE
     1 JGJ         1 TEMP              0 ****  ****    0 ROOT
