@<TRIPOS>MOLECULE
JGJ
   29    29     1     0     0
SMALL
abcg2


@<TRIPOS>ATOM
      1 C10          1.8670     0.4830    -0.0490 c          1 JGJ       0.600100
      2 C01         -0.5300     1.8340     1.6670 c3         1 JGJ      -0.106100
      3 C02         -0.4960     1.0590     0.3530 c3         1 JGJ       0.165000
      4 C03         -1.7780     0.3030     0.0880 ca         1 JGJ      -0.103300
      5 C04         -2.4660     0.4870    -1.1070 ca         1 JGJ      -0.099000
      6 C05         -3.6390    -0.2110    -1.3680 ca         1 JGJ      -0.111500
      7 C06         -4.1340    -1.1110    -0.4340 ca         1 JGJ      -0.104000
      8 C07         -3.4520    -1.3050     0.7610 ca         1 JGJ      -0.111500
      9 C08         -2.2840    -0.6010     1.0200 ca         1 JGJ      -0.099000
     10 N09          0.6210     0.1270     0.3030 ns         1 JGJ      -0.515900
     11 O11          2.1780     1.6070    -0.4030 o          1 JGJ      -0.572100
     12 C12          2.8710    -0.6550     0.0390 c3         1 JGJ       0.073600
     13 O13          4.0840    -0.2340    -0.4990 os         1 JGJ      -0.415000
     14 C14          5.0640    -1.2420    -0.4520 c3         1 JGJ       0.140900
     15 H011         0.3880     2.4080     1.7930 hc         1 JGJ       0.044700
     16 H012        -1.3690     2.5310     1.6750 hc         1 JGJ       0.044700
     17 H021        -0.3550     1.7740    -0.4600 h1         1 JGJ       0.078700
     18 H041        -2.0820     1.1850    -1.8420 ha         1 JGJ       0.114000
     19 H051        -4.1620    -0.0530    -2.3020 ha         1 JGJ       0.114500
     20 H061        -5.0470    -1.6560    -0.6340 ha         1 JGJ       0.114000
     21 H071        -3.8320    -2.0040     1.4950 ha         1 JGJ       0.114500
     22 H081        -1.7700    -0.7610     1.9610 ha         1 JGJ       0.114000
     23 H091         0.4560    -0.8230     0.6010 hn         1 JGJ       0.311500
     24 H121         2.9720    -0.9490     1.0950 h1         1 JGJ       0.033200
     25 H122         2.4740    -1.5350    -0.4890 h1         1 JGJ       0.033200
     26 H142         5.3000    -1.5390     0.5770 h1         1 JGJ       0.031033
     27 H143         4.7560    -2.1410    -0.9990 h1         1 JGJ       0.031033
     28 H141         5.9680    -0.8500    -0.9140 h1         1 JGJ       0.031033
     29 H013        -0.6330     1.1690     2.5250 hc         1 JGJ       0.044700
@<TRIPOS>BOND
     1     1    10 1   
     2     1    11 2   
     3     1    12 1   
     4     2     3 1   
     5     2    15 1   
     6     2    16 1   
     7     2    29 1   
     8     3     4 1   
     9     3    10 1   
    10     3    17 1   
    11     4     5 ar  
    12     4     9 ar  
    13     5     6 ar  
    14     5    18 1   
    15     6     7 ar  
    16     6    19 1   
    17     7     8 ar  
    18     7    20 1   
    19     8     9 ar  
    20     8    21 1   
    21     9    22 1   
    22    10    23 1   
    23    12    13 1   
    24    12    24 1   
    25    12    25 1   
    26    13    14 1   
    27    14    26 1   
    28    14    27 1   
    29    14    28 1   
@<TRIPOS>SUBSTRUCTURE
     1 JGJ         1 TEMP              0 ****  ****    0 ROOT
