@<TRIPOS>MOLECULE
JGK
   56    59     1     0     0
SMALL
No Charge or Current Charge


@<TRIPOS>ATOM
      1 C2           2.2690    -0.9780     0.0310 cp         1 JGK      -0.097000
      2 C3           3.3770    -0.4950    -0.7090 ca         1 JGK      -0.023000
      3 C4           4.6020    -1.2010    -0.7610 ca         1 JGK      -0.221600
      4 C5           4.7140    -2.4160    -0.0520 ca         1 JGK      -0.008000
      5 C6           3.6320    -2.9120     0.6920 ca         1 JGK      -0.225000
      6 C7           5.7870    -0.6870    -1.5550 c          1 JGK       0.590700
      7 C10         -0.0130    -4.0270     2.8950 c3         1 JGK      -0.095100
      8 C11          0.9950    -0.1930     0.0470 cp         1 JGK       0.008000
      9 C12          1.0120     1.1980     0.3000 ca         1 JGK      -0.126000
     10 C14         -1.3950     1.3160     0.0460 ca         1 JGK      -0.129000
     11 C16         -0.2490    -0.8050    -0.2220 ca         1 JGK      -0.139000
     12 C18          0.7980     4.2150     1.2800 cc         1 JGK       0.506900
     13 C19         -0.9090     4.3400    -0.0510 cd         1 JGK       0.232300
     14 C20         -1.9790     4.2180    -1.1050 c3         1 JGK      -0.145400
     15 C21         -3.9500    -0.3430    -0.7330 c          1 JGK       0.549600
     16 C1           2.4170    -2.2010     0.7380 ca         1 JGK       0.189100
     17 C13         -0.1700     1.9680     0.3000 ca         1 JGK       0.025000
     18 C15         -1.4440    -0.0670    -0.2260 ca         1 JGK      -0.022000
     19 C17         -0.1240     3.4140     0.5810 cc         1 JGK      -0.217000
     20 C22         -4.8910    -1.4800    -0.9130 cc         1 JGK       0.043500
     21 C23         -5.6620    -3.5510    -1.0580 cc         1 JGK       0.150900
     22 C24         -6.7200    -2.7080    -1.2650 cd         1 JGK      -0.198000
     23 C25         -6.2330    -1.3870    -1.1730 cd         1 JGK      -0.095000
     24 C8           5.6780     0.6350    -2.3170 c3         1 JGK      -0.196100
     25 C9           1.3610    -3.8700     2.2230 c3         1 JGK       0.163600
     26 N1           0.6130     5.5070     1.1940 nd         1 JGK      -0.439300
     27 N3          -2.6510    -0.7720    -0.4870 ns         1 JGK      -0.136000
     28 O1           6.8360    -1.3190    -1.5950 o          1 JGK      -0.532100
     29 O2           1.3390    -2.6390     1.4840 os         1 JGK      -0.343100
     30 O3          -0.5210     5.6070     0.3160 os         1 JGK      -0.072700
     31 O4          -4.5200    -2.8100    -0.8390 os         1 JGK      -0.245000
     32 O5          -4.2900     0.8340    -0.8050 o          1 JGK      -0.576100
     33 H1           3.2560     0.4380    -1.2520 ha         1 JGK       0.123000
     34 H2           5.6430    -2.9830    -0.0710 ha         1 JGK       0.134000
     35 H3           3.7610    -3.8460     1.2300 ha         1 JGK       0.122000
     36 H4          -0.0480    -4.9570     3.4730 hc         1 JGK       0.049033
     37 H5          -0.2070    -3.1900     3.5760 hc         1 JGK       0.049033
     38 H6          -0.8090    -4.0580     2.1420 hc         1 JGK       0.049033
     39 H7           1.9690     1.6780     0.4730 ha         1 JGK       0.129000
     40 H8          -2.3130     1.8850     0.1060 ha         1 JGK       0.147000
     41 H9          -0.2800    -1.8700    -0.4370 ha         1 JGK       0.118000
     42 H10         -2.9570     4.0200    -0.6530 hc         1 JGK       0.068033
     43 H11         -2.0650     5.1450    -1.6840 hc         1 JGK       0.068033
     44 H12         -1.7530     3.4110    -1.8120 hc         1 JGK       0.068033
     45 H13         -5.5810    -4.6300    -1.0410 h4         1 JGK       0.057100
     46 H14         -7.7440    -3.0090    -1.4620 ha         1 JGK       0.150000
     47 H15         -6.8040    -0.4700    -1.2850 ha         1 JGK       0.160000
     48 H16          5.3750     1.4260    -1.6220 hc         1 JGK       0.062033
     49 H17          6.6030     0.8960    -2.8420 hc         1 JGK       0.062033
     50 H18          4.8290     0.5810    -3.0080 hc         1 JGK       0.062033
     51 H19          2.1440    -3.8500     2.9920 h1         1 JGK       0.038200
     52 H20          1.5400    -4.7230     1.5560 h1         1 JGK       0.038200
     53 H21          2.2210     4.3840     2.6960 hn         1 JGK       0.464000
     54 H22          1.6870     2.7740     2.3880 hn         1 JGK       0.464000
     55 H23         -2.5470    -1.7790    -0.4890 hn         1 JGK       0.165000
     56 N2           1.7830     3.7280     2.0580 nv         1 JGK      -1.024900
@<TRIPOS>BOND
     1     1     2 ar  
     2     1     8 1   
     3     1    16 ar  
     4     2     3 ar  
     5     2    33 1   
     6     3     4 ar  
     7     3     6 1   
     8     4     5 ar  
     9     4    34 1   
    10     5    16 ar  
    11     5    35 1   
    12     6    24 1   
    13     6    28 2   
    14     7    25 1   
    15     7    36 1   
    16     7    37 1   
    17     7    38 1   
    18     8     9 ar  
    19     8    11 ar  
    20     9    17 ar  
    21     9    39 1   
    22    10    17 ar  
    23    10    18 ar  
    24    10    40 1   
    25    11    18 ar  
    26    11    41 1   
    27    12    19 1   
    28    12    26 2   
    29    12    56 1   
    30    13    14 1   
    31    13    19 2   
    32    13    30 1   
    33    14    42 1   
    34    14    43 1   
    35    14    44 1   
    36    15    20 1   
    37    15    27 1   
    38    15    32 2   
    39    16    29 1   
    40    17    19 1   
    41    18    27 1   
    42    20    23 2   
    43    20    31 1   
    44    21    22 2   
    45    21    31 1   
    46    21    45 1   
    47    22    23 1   
    48    22    46 1   
    49    23    47 1   
    50    24    48 1   
    51    24    49 1   
    52    24    50 1   
    53    25    29 1   
    54    25    51 1   
    55    25    52 1   
    56    26    30 1   
    57    27    55 1   
    58    53    56 1   
    59    54    56 1   
@<TRIPOS>SUBSTRUCTURE
     1 JGK         1 TEMP              0 ****  ****    0 ROOT
