@<TRIPOS>MOLECULE
JGK
   56    59     1     0     0
SMALL
abcg2


@<TRIPOS>ATOM
      1 C2           2.2400    -0.9960     0.0290 cp         1 JGK      -0.097000
      2 C3           3.2810    -0.5440    -0.7670 ca         1 JGK      -0.023000
      3 C4           4.5050    -1.2100    -0.8400 ca         1 JGK      -0.221600
      4 C5           4.6690    -2.3660    -0.0800 ca         1 JGK      -0.008000
      5 C6           3.6530    -2.8370     0.7290 ca         1 JGK      -0.225000
      6 C7           5.6170    -0.7280    -1.6950 c          1 JGK       0.590700
      7 C10          0.2230    -3.9180     3.0880 c3         1 JGK      -0.095100
      8 C11          0.9700    -0.2370     0.0680 cp         1 JGK       0.008000
      9 C12          1.0000     1.1360     0.2970 ca         1 JGK      -0.126000
     10 C14         -1.3970     1.2480     0.0510 ca         1 JGK      -0.129000
     11 C16         -0.2480    -0.8560    -0.1820 ca         1 JGK      -0.139000
     12 C18          0.6280     4.0450     1.4890 cc         1 JGK       0.506900
     13 C19         -0.8190     4.3070    -0.1300 cd         1 JGK       0.232300
     14 C20         -1.7870     4.2900    -1.2490 c3         1 JGK      -0.145400
     15 C21         -3.8520    -0.3680    -0.7000 c          1 JGK       0.549600
     16 C1           2.4350    -2.1580     0.7980 ca         1 JGK       0.189100
     17 C13         -0.1770     1.8800     0.2870 ca         1 JGK       0.025000
     18 C15         -1.4330    -0.1220    -0.1980 ca         1 JGK      -0.022000
     19 C17         -0.1410     3.3240     0.5190 cc         1 JGK      -0.217000
     20 C22         -4.8630    -1.3970    -0.9710 cc         1 JGK       0.043500
     21 C23         -5.6290    -3.4140    -1.2340 cc         1 JGK       0.150900
     22 C24         -6.6840    -2.5850    -1.4310 cd         1 JGK      -0.198000
     23 C25         -6.1850    -1.2660    -1.2600 cd         1 JGK      -0.095000
     24 C8           5.4070     0.5330    -2.4900 c3         1 JGK      -0.196100
     25 C9           1.5210    -3.7350     2.3400 c3         1 JGK       0.163600
     26 N1           0.4070     5.3300     1.4130 nd         1 JGK      -0.439300
     27 N3          -2.6040    -0.8410    -0.4510 ns         1 JGK      -0.136000
     28 O1           6.6680    -1.3350    -1.7460 o          1 JGK      -0.532100
     29 O2           1.4210    -2.5340     1.5790 os         1 JGK      -0.343100
     30 O3          -0.4960     5.4910     0.3860 os         1 JGK      -0.072700
     31 O4          -4.5220    -2.7050    -0.9560 os         1 JGK      -0.245000
     32 O5          -4.1650     0.8100    -0.7110 o          1 JGK      -0.576100
     33 H1           3.1140     0.3480    -1.3580 ha         1 JGK       0.123000
     34 H2           5.6040    -2.9090    -0.1130 ha         1 JGK       0.134000
     35 H3           3.8250    -3.7320     1.3120 ha         1 JGK       0.122000
     36 H4           0.2670    -4.8440     3.6610 hc         1 JGK       0.049033
     37 H5           0.0460    -3.1000     3.7860 hc         1 JGK       0.049033
     38 H6          -0.6250    -3.9850     2.4060 hc         1 JGK       0.049033
     39 H7           1.9490     1.6260     0.4790 ha         1 JGK       0.129000
     40 H8          -2.3060     1.8270     0.0840 ha         1 JGK       0.147000
     41 H9          -0.2820    -1.9200    -0.3850 ha         1 JGK       0.118000
     42 H10         -2.8130     4.3650    -0.8840 hc         1 JGK       0.068033
     43 H11         -1.6150     5.1240    -1.9290 hc         1 JGK       0.068033
     44 H12         -1.7020     3.3630    -1.8130 hc         1 JGK       0.068033
     45 H13         -5.5220    -4.4860    -1.2590 h4         1 JGK       0.057100
     46 H14         -7.6930    -2.8790    -1.6680 ha         1 JGK       0.150000
     47 H15         -6.7350    -0.3430    -1.3430 ha         1 JGK       0.160000
     48 H16          5.1950     1.3770    -1.8310 hc         1 JGK       0.062033
     49 H17          6.2930     0.7620    -3.0780 hc         1 JGK       0.062033
     50 H18          4.5540     0.4330    -3.1630 hc         1 JGK       0.062033
     51 H19          2.3610    -3.6680     3.0370 h1         1 JGK       0.038200
     52 H20          1.7060    -4.5840     1.6730 h1         1 JGK       0.038200
     53 H21          1.7830     4.1190     3.1360 hn         1 JGK       0.464000
     54 H22          1.3180     2.5790     2.6850 hn         1 JGK       0.464000
     55 H23         -2.4790    -1.8410    -0.4980 hn         1 JGK       0.165000
     56 N2           1.5250     3.5150     2.3710 nv         1 JGK      -1.024900
@<TRIPOS>BOND
     1     1     2 ar  
     2     1     8 1   
     3     1    16 ar  
     4     2     3 ar  
     5     2    33 1   
     6     3     4 ar  
     7     3     6 1   
     8     4     5 ar  
     9     4    34 1   
    10     5    16 ar  
    11     5    35 1   
    12     6    24 1   
    13     6    28 2   
    14     7    25 1   
    15     7    36 1   
    16     7    37 1   
    17     7    38 1   
    18     8     9 ar  
    19     8    11 ar  
    20     9    17 ar  
    21     9    39 1   
    22    10    17 ar  
    23    10    18 ar  
    24    10    40 1   
    25    11    18 ar  
    26    11    41 1   
    27    12    19 1   
    28    12    26 2   
    29    12    56 1   
    30    13    14 1   
    31    13    19 2   
    32    13    30 1   
    33    14    42 1   
    34    14    43 1   
    35    14    44 1   
    36    15    20 1   
    37    15    27 1   
    38    15    32 2   
    39    16    29 1   
    40    17    19 1   
    41    18    27 1   
    42    20    23 2   
    43    20    31 1   
    44    21    22 2   
    45    21    31 1   
    46    21    45 1   
    47    22    23 1   
    48    22    46 1   
    49    23    47 1   
    50    24    48 1   
    51    24    49 1   
    52    24    50 1   
    53    25    29 1   
    54    25    51 1   
    55    25    52 1   
    56    26    30 1   
    57    27    55 1   
    58    53    56 1   
    59    54    56 1   
@<TRIPOS>SUBSTRUCTURE
     1 JGK         1 TEMP              0 ****  ****    0 ROOT
