@<TRIPOS>MOLECULE
JGL
   57    61     1     0     0
SMALL
No Charge or Current Charge


@<TRIPOS>ATOM
      1 FBJ         20.3180   -11.1530   -23.6140 f          1 JGL      -0.160000
      2 CBE         19.4200   -12.0410   -23.1270 ca         1 JGL       0.158000
      3 CBF         19.5990   -13.4050   -23.4110 ca         1 JGL      -0.169000
      4 CBG         18.6650   -14.3420   -22.9480 ca         1 JGL       0.183000
      5 FBK         18.8370   -15.6520   -23.2240 f          1 JGL      -0.172000
      6 CBH         17.5480   -13.9250   -22.2070 ca         1 JGL      -0.145000
      7 CBI         17.3640   -12.5600   -21.9210 ca         1 JGL      -0.076000
      8 CBD         18.3030   -11.6130   -22.3680 ca         1 JGL       0.058100
      9 OBC         18.0750   -10.2820   -22.0810 os         1 JGL      -0.232200
     10 CAR         19.0600    -9.4120   -21.6660 ca         1 JGL       0.121100
     11 CAQ         20.0670    -9.8760   -20.7960 ca         1 JGL      -0.128000
     12 CAP         21.0230    -8.9890   -20.2780 ca         1 JGL      -0.116000
     13 CAO         20.9750    -7.6250   -20.5990 ca         1 JGL       0.268000
     14 NAW         21.9420    -6.7850   -20.0490 nu         1 JGL      -0.896100
     15 SAX         21.8570    -5.1640   -19.7010 s6         1 JGL       1.218100
     16 OAY         21.6980    -4.4700   -20.9800 o          1 JGL      -0.530000
     17 OAZ         23.0230    -4.9050   -18.8560 o          1 JGL      -0.530000
     18 CBA         20.3610    -4.9650   -18.7170 c3         1 JGL      -0.348400
     19 CBB         20.3330    -5.8160   -17.4220 c3         1 JGL      -0.066100
     20 CAN         19.9620    -7.1600   -21.4590 ca         1 JGL      -0.127000
     21 CAK         18.9940    -8.0360   -22.0080 ca         1 JGL       0.000200
     22 CAF         17.9500    -7.4820   -22.8960 cc         1 JGL      -0.218000
     23 CAE         17.3870    -6.2790   -22.4910 cd         1 JGL      -0.004400
     24 NAD         16.3150    -5.6810   -23.1740 n          1 JGL      -0.283000
     25 CAM         15.7690    -4.3870   -22.7040 c3         1 JGL       0.081300
     26 CAC         15.7080    -6.2810   -24.3070 c          1 JGL       0.592600
     27 OAL         14.7700    -5.7730   -24.9080 o          1 JGL      -0.549000
     28 CAB         16.2990    -7.5660   -24.7030 cd         1 JGL      -0.248600
     29 CAI         15.9910    -8.4480   -25.7640 cd         1 JGL      -0.114000
     30 CAA         17.3340    -8.1190   -24.0230 cc         1 JGL       0.303800
     31 OAG         17.7500    -9.2890   -24.6150 os         1 JGL      -0.217000
     32 CAH         16.8910    -9.4770   -25.6730 cc         1 JGL       0.215500
     33 CAJ         16.9760   -10.6110   -26.5450 cc         1 JGL      -0.251500
     34 CAS         17.8880   -11.6270   -26.4710 cd         1 JGL       0.273900
     35 NAT         17.6440   -12.5320   -27.4890 nd         1 JGL      -0.676000
     36 CAU         16.5990   -12.0650   -28.1660 cc         1 JGL       0.406400
     37 NAV         16.1580   -10.8830   -27.6210 na         1 JGL      -0.298500
     38 H1          20.4550   -13.7320   -23.9940 ha         1 JGL       0.158000
     39 H2          16.8260   -14.6590   -21.8580 ha         1 JGL       0.142000
     40 H3          16.4970   -12.2340   -21.3500 ha         1 JGL       0.137000
     41 H4          20.1020   -10.9220   -20.5030 ha         1 JGL       0.131000
     42 H5          21.7940    -9.3650   -19.6110 ha         1 JGL       0.121000
     43 H6          22.5640    -7.1720   -19.3530 hn         1 JGL       0.501000
     44 H7          20.3020    -3.8980   -18.4770 h1         1 JGL       0.100200
     45 H8          19.5240    -5.2320   -19.3700 h1         1 JGL       0.100200
     46 H9          19.4080    -5.6260   -16.8640 hc         1 JGL       0.048700
     47 H10         20.3740    -6.8880   -17.6500 hc         1 JGL       0.048700
     48 H11         21.1780    -5.5670   -16.7680 hc         1 JGL       0.048700
     49 H12         19.9440    -6.1150   -21.7430 ha         1 JGL       0.148000
     50 H13         17.6990    -5.7220   -21.6120 h4         1 JGL       0.203000
     51 H14         16.3510    -4.0000   -21.8580 h1         1 JGL       0.056700
     52 H15         15.8050    -3.6530   -23.5190 h1         1 JGL       0.056700
     53 H16         14.7270    -4.5200   -22.3870 h1         1 JGL       0.056700
     54 H17         15.2120    -8.3290   -26.5100 ha         1 JGL       0.150000
     55 H18         18.6960   -11.7590   -25.7630 h4         1 JGL       0.051100
     56 H20         16.1310   -12.5200   -29.0320 h5         1 JGL       0.059100
     57 H19         15.3760   -10.3360   -27.9640 hn         1 JGL       0.357000
@<TRIPOS>BOND
     1     1     2 1   
     2     2     3 ar  
     3     2     8 ar  
     4     3     4 ar  
     5     3    38 1   
     6     4     5 1   
     7     4     6 ar  
     8     6     7 ar  
     9     6    39 1   
    10     7     8 ar  
    11     7    40 1   
    12     8     9 1   
    13     9    10 1   
    14    10    11 ar  
    15    10    21 ar  
    16    11    12 ar  
    17    11    41 1   
    18    12    13 ar  
    19    12    42 1   
    20    13    14 1   
    21    13    20 ar  
    22    14    15 1   
    23    14    43 1   
    24    15    16 2   
    25    15    17 2   
    26    15    18 1   
    27    18    19 1   
    28    18    44 1   
    29    18    45 1   
    30    19    46 1   
    31    19    47 1   
    32    19    48 1   
    33    20    21 ar  
    34    20    49 1   
    35    21    22 1   
    36    22    23 2   
    37    22    30 1   
    38    23    24 1   
    39    23    50 1   
    40    24    25 1   
    41    24    26 1   
    42    25    51 1   
    43    25    52 1   
    44    25    53 1   
    45    26    27 2   
    46    26    28 1   
    47    28    29 1   
    48    28    30 2   
    49    29    32 2   
    50    29    54 1   
    51    30    31 1   
    52    31    32 1   
    53    32    33 1   
    54    33    34 2   
    55    33    37 1   
    56    34    35 1   
    57    34    55 1   
    58    35    36 2   
    59    36    37 1   
    60    36    56 1   
    61    37    57 1   
@<TRIPOS>SUBSTRUCTURE
     1 JGL         1 TEMP              0 ****  ****    0 ROOT
