@<TRIPOS>MOLECULE
JGL
   57    61     1     0     0
SMALL
abcg2


@<TRIPOS>ATOM
      1 FBJ         19.9480   -11.2280   -23.5010 f          1 JGL      -0.160000
      2 CBE         19.0440   -12.0750   -22.9690 ca         1 JGL       0.158000
      3 CBF         19.1600   -13.4230   -23.2520 ca         1 JGL      -0.169000
      4 CBG         18.2140   -14.2770   -22.7130 ca         1 JGL       0.183000
      5 FBK         18.3090   -15.5990   -22.9910 f          1 JGL      -0.172000
      6 CBH         17.1820   -13.8300   -21.9100 ca         1 JGL      -0.145000
      7 CBI         17.1000   -12.4700   -21.6330 ca         1 JGL      -0.076000
      8 CBD         18.0250   -11.5760   -22.1590 ca         1 JGL       0.058100
      9 OBC         17.8370   -10.2370   -21.9320 os         1 JGL      -0.232200
     10 CAR         18.8960    -9.4360   -21.5550 ca         1 JGL       0.121100
     11 CAQ         19.9290    -9.9030   -20.7540 ca         1 JGL      -0.128000
     12 CAP         20.9330    -9.0400   -20.3440 ca         1 JGL      -0.116000
     13 CAO         20.9170    -7.7040   -20.7430 ca         1 JGL       0.268000
     14 NAW         22.0010    -6.8790   -20.3540 nu         1 JGL      -0.896100
     15 SAX         21.9050    -5.2530   -20.0780 s6         1 JGL       1.218100
     16 OAY         21.4850    -4.6080   -21.3000 o          1 JGL      -0.530000
     17 OAZ         23.1870    -4.9010   -19.5110 o          1 JGL      -0.530000
     18 CBA         20.6140    -5.0190   -18.8650 c3         1 JGL      -0.348400
     19 CBB         20.8920    -5.7320   -17.5510 c3         1 JGL      -0.066100
     20 CAN         19.8720    -7.2420   -21.5380 ca         1 JGL      -0.127000
     21 CAK         18.8440    -8.0950   -21.9420 ca         1 JGL       0.000200
     22 CAF         17.7170    -7.5630   -22.7340 cc         1 JGL      -0.218000
     23 CAE         17.0180    -6.4620   -22.3120 cd         1 JGL      -0.004400
     24 NAD         15.9700    -5.9170   -22.9990 n          1 JGL      -0.283000
     25 CAM         15.2800    -4.7450   -22.4520 c3         1 JGL       0.081300
     26 CAC         15.4870    -6.4170   -24.2150 c          1 JGL       0.592600
     27 OAL         14.5340    -5.8730   -24.7860 o          1 JGL      -0.549000
     28 CAB         16.2050    -7.5660   -24.6800 cd         1 JGL      -0.248600
     29 CAI         16.0840    -8.3610   -25.8640 cd         1 JGL      -0.114000
     30 CAA         17.2630    -8.0910   -23.9590 cc         1 JGL       0.303800
     31 OAG         17.7990    -9.1420   -24.6250 os         1 JGL      -0.217000
     32 CAH         17.0660    -9.3020   -25.7900 cc         1 JGL       0.215500
     33 CAJ         17.4730   -10.3770   -26.6450 cc         1 JGL      -0.251500
     34 CAS         18.5260   -11.2650   -26.5700 cd         1 JGL       0.273900
     35 NAT         18.4970   -12.1250   -27.6410 nd         1 JGL      -0.676000
     36 CAU         17.4470   -11.7700   -28.3570 cc         1 JGL       0.406400
     37 NAV         16.7990   -10.7210   -27.7980 na         1 JGL      -0.298500
     38 H1          19.9580   -13.7850   -23.8850 ha         1 JGL       0.158000
     39 H2          16.4620   -14.5280   -21.5070 ha         1 JGL       0.142000
     40 H3          16.3080   -12.0820   -21.0070 ha         1 JGL       0.137000
     41 H4          19.9430   -10.9370   -20.4390 ha         1 JGL       0.131000
     42 H5          21.7350    -9.4060   -19.7150 ha         1 JGL       0.121000
     43 H6          22.6720    -7.3190   -19.7360 hn         1 JGL       0.501000
     44 H7          20.5490    -3.9360   -18.7490 h1         1 JGL       0.100200
     45 H8          19.6970    -5.3670   -19.3410 h1         1 JGL       0.100200
     46 H9          20.0730    -5.5290   -16.8600 hc         1 JGL       0.048700
     47 H10         20.9550    -6.8120   -17.6920 hc         1 JGL       0.048700
     48 H11         21.8180    -5.3810   -17.0990 hc         1 JGL       0.048700
     49 H12         19.8570    -6.2160   -21.8740 ha         1 JGL       0.148000
     50 H13         17.2660    -5.9730   -21.3820 h4         1 JGL       0.203000
     51 H14         15.7540    -4.4670   -21.5160 h1         1 JGL       0.056700
     52 H15         15.3390    -3.9180   -23.1570 h1         1 JGL       0.056700
     53 H16         14.2310    -4.9810   -22.2790 h1         1 JGL       0.056700
     54 H17         15.3690    -8.2420   -26.6610 ha         1 JGL       0.150000
     55 H18         19.2890   -11.3160   -25.8130 h4         1 JGL       0.051100
     56 H20         17.1150   -12.2300   -29.2740 h5         1 JGL       0.059100
     57 H19         15.9670   -10.2790   -28.1600 hn         1 JGL       0.357000
@<TRIPOS>BOND
     1     1     2 1   
     2     2     3 ar  
     3     2     8 ar  
     4     3     4 ar  
     5     3    38 1   
     6     4     5 1   
     7     4     6 ar  
     8     6     7 ar  
     9     6    39 1   
    10     7     8 ar  
    11     7    40 1   
    12     8     9 1   
    13     9    10 1   
    14    10    11 ar  
    15    10    21 ar  
    16    11    12 ar  
    17    11    41 1   
    18    12    13 ar  
    19    12    42 1   
    20    13    14 1   
    21    13    20 ar  
    22    14    15 1   
    23    14    43 1   
    24    15    16 2   
    25    15    17 2   
    26    15    18 1   
    27    18    19 1   
    28    18    44 1   
    29    18    45 1   
    30    19    46 1   
    31    19    47 1   
    32    19    48 1   
    33    20    21 ar  
    34    20    49 1   
    35    21    22 1   
    36    22    23 2   
    37    22    30 1   
    38    23    24 1   
    39    23    50 1   
    40    24    25 1   
    41    24    26 1   
    42    25    51 1   
    43    25    52 1   
    44    25    53 1   
    45    26    27 2   
    46    26    28 1   
    47    28    29 1   
    48    28    30 2   
    49    29    32 2   
    50    29    54 1   
    51    30    31 1   
    52    31    32 1   
    53    32    33 1   
    54    33    34 2   
    55    33    37 1   
    56    34    35 1   
    57    34    55 1   
    58    35    36 2   
    59    36    37 1   
    60    36    56 1   
    61    37    57 1   
@<TRIPOS>SUBSTRUCTURE
     1 JGL         1 TEMP              0 ****  ****    0 ROOT
