@<TRIPOS>MOLECULE
JGM
   32    32     1     0     0
SMALL
No Charge or Current Charge


@<TRIPOS>ATOM
      1 C10         -3.7570     0.0240     0.1780 ca         1 JGM       0.143100
      2 C01          0.3320     3.4780    -0.2690 c3         1 JGM      -0.177100
      3 O03          0.0420     1.8710     1.5040 o          1 JGM      -0.606100
      4 N04          1.1730     1.1870    -0.3600 ns         1 JGM      -0.491900
      5 C05          1.3930    -0.2290     0.0220 c3         1 JGM       0.036700
      6 C06          0.3420    -1.1530    -0.6490 c3         1 JGM      -0.034100
      7 C07         -1.0990    -0.7430    -0.3630 ca         1 JGM      -0.122300
      8 C08         -1.8370    -0.0150    -1.3180 ca         1 JGM      -0.066000
      9 C09         -3.1620     0.3670    -1.0450 ca         1 JGM      -0.172000
     10 C11         -3.0280    -0.7030     1.1330 ca         1 JGM      -0.172000
     11 C12         -1.7020    -1.0860     0.8640 ca         1 JGM      -0.066000
     12 O13         -5.0420     0.3990     0.4310 oh         1 JGM      -0.532100
     13 C14          2.8440    -0.6770    -0.3280 c          1 JGM       0.611100
     14 O15          3.5830    -0.0320    -1.0670 o          1 JGM      -0.561100
     15 N16          3.2570    -1.8760     0.2690 ns         1 JGM      -0.404300
     16 N17          4.5700    -2.4950     0.0930 n8         1 JGM      -0.719200
     17 H011        -0.2060     4.1940     0.3610 hc         1 JGM       0.062033
     18 H012         1.3220     3.8510    -0.5540 hc         1 JGM       0.062033
     19 H013        -0.1580     3.3480    -1.2410 hc         1 JGM       0.062033
     20 H041         1.5340     1.5050    -1.2520 hn         1 JGM       0.322500
     21 H051         1.2910    -0.3210     1.1110 h1         1 JGM       0.069700
     22 H062         0.5210    -1.1620    -1.7320 hc         1 JGM       0.062200
     23 H061         0.5010    -2.1860    -0.3130 hc         1 JGM       0.062200
     24 H081        -1.3840     0.2590    -2.2680 ha         1 JGM       0.110000
     25 H091        -3.7270     0.9300    -1.7840 ha         1 JGM       0.123000
     26 H111        -3.4800    -0.9730     2.0840 ha         1 JGM       0.123000
     27 H121        -1.1420    -1.6450     1.6100 ha         1 JGM       0.110000
     28 H131        -5.2880     0.0770     1.3240 ho         1 JGM       0.466000
     29 H161         2.5730    -2.3340     0.8740 hn         1 JGM       0.299500
     30 H171         5.0640    -2.5950     0.9930 hn         1 JGM       0.397500
     31 H172         4.4900    -3.4440    -0.3030 hn         1 JGM       0.397500
     32 C02          0.4850     2.1140     0.3910 c          1 JGM       0.605100
@<TRIPOS>BOND
     1     1     9 ar  
     2     1    10 ar  
     3     1    12 1   
     4     2    17 1   
     5     2    18 1   
     6     2    19 1   
     7     2    32 1   
     8     3    32 2   
     9     4     5 1   
    10     4    20 1   
    11     4    32 1   
    12     5     6 1   
    13     5    13 1   
    14     5    21 1   
    15     6     7 1   
    16     6    22 1   
    17     6    23 1   
    18     7     8 ar  
    19     7    11 ar  
    20     8     9 ar  
    21     8    24 1   
    22     9    25 1   
    23    10    11 ar  
    24    10    26 1   
    25    11    27 1   
    26    12    28 1   
    27    13    14 2   
    28    13    15 1   
    29    15    16 1   
    30    15    29 1   
    31    16    30 1   
    32    16    31 1   
@<TRIPOS>SUBSTRUCTURE
     1 JGM         1 TEMP              0 ****  ****    0 ROOT
