@<TRIPOS>MOLECULE
JGM
   32    32     1     0     0
SMALL
abcg2


@<TRIPOS>ATOM
      1 C10         -3.9610    -0.3260     0.0690 ca         1 JGM       0.143100
      2 C01          1.2040     3.5570    -0.0900 c3         1 JGM      -0.177100
      3 O03          2.1920     1.9150     1.3670 o          1 JGM      -0.606100
      4 N04          0.8920     1.1800    -0.3100 ns         1 JGM      -0.491900
      5 C05          1.1190    -0.2080    -0.0140 c3         1 JGM       0.036700
      6 C06          0.1820    -1.0840    -0.8590 c3         1 JGM      -0.034100
      7 C07         -1.2680    -0.8340    -0.5520 ca         1 JGM      -0.122300
      8 C08         -2.0750    -0.0830    -1.4030 ca         1 JGM      -0.066000
      9 C09         -3.4050     0.1740    -1.1040 ca         1 JGM      -0.172000
     10 C11         -3.1710    -1.0850     0.9300 ca         1 JGM      -0.172000
     11 C12         -1.8430    -1.3300     0.6150 ca         1 JGM      -0.066000
     12 O13         -5.2580    -0.0530     0.3210 oh         1 JGM      -0.532100
     13 C14          2.5710    -0.5940    -0.3080 c          1 JGM       0.611100
     14 O15          3.1750    -0.1340    -1.2580 o          1 JGM      -0.561100
     15 N16          3.0570    -1.5100     0.5440 ns         1 JGM      -0.404300
     16 N17          4.3210    -2.0480     0.3800 n8         1 JGM      -0.719200
     17 H011         1.6900     4.2890     0.5490 hc         1 JGM       0.062033
     18 H012         1.5660     3.6890    -1.1110 hc         1 JGM       0.062033
     19 H013         0.1320     3.7540    -0.0990 hc         1 JGM       0.062033
     20 H041         0.4120     1.4190    -1.1630 hn         1 JGM       0.322500
     21 H051         0.8980    -0.3860     1.0430 h1         1 JGM       0.069700
     22 H062         0.3830    -0.9080    -1.9190 hc         1 JGM       0.062200
     23 H061         0.4300    -2.1300    -0.6650 hc         1 JGM       0.062200
     24 H081        -1.6670     0.3060    -2.3290 ha         1 JGM       0.110000
     25 H091        -4.0130     0.7600    -1.7820 ha         1 JGM       0.123000
     26 H111        -3.5900    -1.4910     1.8430 ha         1 JGM       0.123000
     27 H121        -1.2480    -1.9270     1.2960 ha         1 JGM       0.110000
     28 H131        -5.5290    -0.4500     1.1560 ho         1 JGM       0.466000
     29 H161         2.4980    -1.8010     1.3340 hn         1 JGM       0.299500
     30 H171         4.8800    -1.8300     1.1940 hn         1 JGM       0.397500
     31 H172         4.2450    -3.0550     0.3230 hn         1 JGM       0.397500
     32 C02          1.4880     2.1590     0.3980 c          1 JGM       0.605100
@<TRIPOS>BOND
     1     1     9 ar  
     2     1    10 ar  
     3     1    12 1   
     4     2    17 1   
     5     2    18 1   
     6     2    19 1   
     7     2    32 1   
     8     3    32 2   
     9     4     5 1   
    10     4    20 1   
    11     4    32 1   
    12     5     6 1   
    13     5    13 1   
    14     5    21 1   
    15     6     7 1   
    16     6    22 1   
    17     6    23 1   
    18     7     8 ar  
    19     7    11 ar  
    20     8     9 ar  
    21     8    24 1   
    22     9    25 1   
    23    10    11 ar  
    24    10    26 1   
    25    11    27 1   
    26    12    28 1   
    27    13    14 2   
    28    13    15 1   
    29    15    16 1   
    30    15    29 1   
    31    16    30 1   
    32    16    31 1   
@<TRIPOS>SUBSTRUCTURE
     1 JGM         1 TEMP              0 ****  ****    0 ROOT
