@<TRIPOS>MOLECULE
JGN
   48    50     1     0     0
SMALL
No Charge or Current Charge


@<TRIPOS>ATOM
      1 C1          -2.0570    -0.6170     0.7160 ca         1 JGN      -0.089800
      2 C2          -3.2990    -0.8520     0.1960 ca         1 JGN      -0.052200
      3 C11         -5.3280    -0.1820    -1.1990 c3         1 JGN      -0.039800
      4 C12         -1.2710     2.8590    -0.6880 c3         1 JGN      -0.039800
      5 C14          1.1520    -0.7320    -0.5300 c6         1 JGN       0.170800
      6 C15          2.2440    -0.8720    -1.6110 c6         1 JGN      -0.106400
      7 C16          3.6490    -0.6230    -1.0150 c6         1 JGN       0.168300
      8 C17          3.6650     0.7570    -0.3290 c6         1 JGN      -0.065400
      9 C18          2.5340     0.8950     0.7330 c6         1 JGN       0.192500
     10 C19          2.6690     2.2880     1.4620 c3         1 JGN       0.159600
     11 N3          -3.7430    -2.1010     0.6110 na         1 JGN      -0.226700
     12 C4          -2.7720    -2.7200     1.4260 cc         1 JGN      -0.167100
     13 C5          -1.7380    -1.7980     1.4830 cd         1 JGN      -0.247200
     14 C6          -3.9440     0.0860    -0.6220 ca         1 JGN      -0.093300
     15 C7          -1.3400     0.5680     0.4700 ca         1 JGN      -0.044300
     16 C8          -1.9670     1.5410    -0.3580 ca         1 JGN      -0.073300
     17 C9          -3.2580     1.2910    -0.8940 ca         1 JGN      -0.096000
     18 C10          0.0520     0.7870     1.0780 c3         1 JGN       0.220100
     19 N13          1.1820     0.6120     0.1220 n3         1 JGN      -0.710600
     20 O21          4.0420    -1.6440    -0.0680 os         1 JGN      -0.462000
     21 H1          -6.0620    -0.3410    -0.4000 hc         1 JGN       0.038033
     22 H2          -5.6820     0.6560    -1.8110 hc         1 JGN       0.038033
     23 H3          -5.3220    -1.0760    -1.8340 hc         1 JGN       0.038033
     24 H4          -0.3080     2.6860    -1.1810 hc         1 JGN       0.044367
     25 H5          -1.8730     3.4810    -1.3610 hc         1 JGN       0.044367
     26 H6          -1.0860     3.4460     0.2190 hc         1 JGN       0.044367
     27 H7           0.1800    -0.9080    -1.0140 h1         1 JGN       0.041200
     28 H8           1.2830    -1.5250     0.2220 h1         1 JGN       0.041200
     29 H9           2.1830    -1.8590    -2.0870 hc         1 JGN       0.050700
     30 H10          2.0540    -0.1430    -2.4100 hc         1 JGN       0.050700
     31 H11          4.3870    -0.6160    -1.8310 h1         1 JGN       0.033700
     32 H12          4.6450     0.9200     0.1390 hc         1 JGN       0.059700
     33 H13          3.5540     1.5400    -1.0910 hc         1 JGN       0.059700
     34 H14          2.7260     0.1370     1.5080 h1         1 JGN       0.034700
     35 H15          1.9910     2.3030     2.3250 h1         1 JGN       0.016700
     36 H16          3.6870     2.3560     1.8710 h1         1 JGN       0.016700
     37 H17          3.2920    -3.4200    -0.9080 h1         1 JGN       0.025367
     38 H18          4.9480    -2.9830    -1.4050 h1         1 JGN       0.025367
     39 H19          4.6410    -3.6250     0.2230 h1         1 JGN       0.025367
     40 H20         -4.6390    -2.5060     0.3580 hn         1 JGN       0.347000
     41 H21         -2.8920    -3.7070     1.8670 h4         1 JGN       0.209000
     42 H22         -0.8140    -1.9580     2.0320 ha         1 JGN       0.202000
     43 H23         -3.7290     2.0390    -1.5260 ha         1 JGN       0.107000
     44 H24          0.0610     1.8010     1.4960 h1         1 JGN       0.037200
     45 H25          0.1810     0.1080     1.9310 h1         1 JGN       0.037200
     46 H27          2.5020     4.2250     1.1790 ho         1 JGN       0.435000
     47 O20          2.4150     3.4250     0.6160 oh         1 JGN      -0.646000
     48 C22          4.2380    -2.9800    -0.5680 c3         1 JGN       0.148900
@<TRIPOS>BOND
     1     1     2 ar  
     2     1    13 1   
     3     1    15 ar  
     4     2    11 1   
     5     2    14 ar  
     6     3    14 1   
     7     3    21 1   
     8     3    22 1   
     9     3    23 1   
    10     4    16 1   
    11     4    24 1   
    12     4    25 1   
    13     4    26 1   
    14     5     6 1   
    15     5    19 1   
    16     5    27 1   
    17     5    28 1   
    18     6     7 1   
    19     6    29 1   
    20     6    30 1   
    21     7     8 1   
    22     7    20 1   
    23     7    31 1   
    24     8     9 1   
    25     8    32 1   
    26     8    33 1   
    27     9    10 1   
    28     9    19 1   
    29     9    34 1   
    30    10    35 1   
    31    10    36 1   
    32    10    47 1   
    33    11    12 1   
    34    11    40 1   
    35    12    13 2   
    36    12    41 1   
    37    13    42 1   
    38    14    17 ar  
    39    15    16 ar  
    40    15    18 1   
    41    16    17 ar  
    42    17    43 1   
    43    18    19 1   
    44    18    44 1   
    45    18    45 1   
    46    20    48 1   
    47    37    48 1   
    48    38    48 1   
    49    39    48 1   
    50    46    47 1   
@<TRIPOS>SUBSTRUCTURE
     1 JGN         1 TEMP              0 ****  ****    0 ROOT
