@<TRIPOS>MOLECULE
JGN
   48    50     1     0     0
SMALL
bcc


@<TRIPOS>ATOM
      1 C1          -2.0990    -0.6210     0.8820 ca         1 JGN      -0.089800
      2 C2          -3.3690    -0.7990     0.2980 ca         1 JGN      -0.052200
      3 C11         -5.2330    -0.1550    -1.2800 c3         1 JGN      -0.039800
      4 C12         -0.9640     2.4910    -0.9730 c3         1 JGN      -0.039800
      5 C14          1.1620    -0.7040    -0.5140 c6         1 JGN       0.170800
      6 C15          2.1990    -0.7300    -1.6220 c6         1 JGN      -0.106400
      7 C16          3.5960    -0.4550    -1.0790 c6         1 JGN       0.145100
      8 C17          3.5540     0.8290    -0.2700 c6         1 JGN      -0.065400
      9 C18          2.4640     0.8160     0.8040 c6         1 JGN       0.192500
     10 C19          2.5320     2.0950     1.6260 c3         1 JGN       0.136400
     11 N3          -3.9330    -1.9120     0.8590 na         1 JGN      -0.176400
     12 C4          -3.0700    -2.4430     1.7730 cc         1 JGN      -0.117100
     13 C5          -1.9320    -1.6900     1.8220 cd         1 JGN      -0.197200
     14 C6          -3.8780     0.0600    -0.6770 ca         1 JGN      -0.093300
     15 C7          -1.2870     0.4580     0.4890 ca         1 JGN      -0.044300
     16 C8          -1.7770     1.3270    -0.4780 ca         1 JGN      -0.073300
     17 C9          -3.0530     1.1100    -1.0360 ca         1 JGN      -0.114000
     18 C10          0.0620     0.6620     1.1270 c3         1 JGN       0.220100
     19 N13          1.1650     0.5700     0.1860 n3         1 JGN      -0.710600
     20 O21          4.0640    -1.4820    -0.2250 os         1 JGN      -0.415600
     21 H1          -6.0220    -0.1020    -0.5270 hc         1 JGN       0.038033
     22 H2          -5.4490     0.5950    -2.0400 hc         1 JGN       0.038033
     23 H3          -5.3100    -1.1380    -1.7520 hc         1 JGN       0.038033
     24 H4          -0.2180     2.1720    -1.7020 hc         1 JGN       0.044367
     25 H5          -1.6030     3.2340    -1.4500 hc         1 JGN       0.044367
     26 H6          -0.4080     2.9800    -0.1740 hc         1 JGN       0.044367
     27 H7           0.1760    -0.8610    -0.9510 h1         1 JGN       0.041200
     28 H8           1.3310    -1.5470     0.1800 h1         1 JGN       0.041200
     29 H9           2.1510    -1.6830    -2.1550 hc         1 JGN       0.050700
     30 H10          1.9620     0.0470    -2.3550 hc         1 JGN       0.050700
     31 H11          4.2990    -0.3370    -1.9190 h1         1 JGN       0.033700
     32 H12          4.5260     1.0030     0.1990 hc         1 JGN       0.059700
     33 H13          3.3720     1.6610    -0.9530 hc         1 JGN       0.059700
     34 H14          2.6980     0.0110     1.5280 h1         1 JGN       0.034700
     35 H15          1.8760     2.0220     2.5030 h1         1 JGN       0.016700
     36 H16          3.5550     2.1580     2.0220 h1         1 JGN       0.016700
     37 H17          3.4910    -3.1970    -1.2760 h1         1 JGN       0.025367
     38 H18          5.0730    -2.5300    -1.7090 h1         1 JGN       0.025367
     39 H19          4.8460    -3.3450    -0.1530 h1         1 JGN       0.025367
     40 H20         -4.8430    -2.2830     0.6470 hn         1 JGN       0.296700
     41 H21         -3.3340    -3.3300     2.3260 h4         1 JGN       0.159000
     42 H22         -1.0830    -1.8810     2.4590 ha         1 JGN       0.152000
     43 H23         -3.4100     1.8080    -1.7870 ha         1 JGN       0.125000
     44 H24          0.0690     1.6580     1.5760 h1         1 JGN       0.037200
     45 H25          0.1810    -0.0510     1.9600 h1         1 JGN       0.037200
     46 H27          2.3180     3.9990     1.3790 ho         1 JGN       0.396000
     47 O20          2.2120     3.2150     0.8340 oh         1 JGN      -0.583800
     48 C22          4.3730    -2.6840    -0.8790 c3         1 JGN       0.125700
@<TRIPOS>BOND
     1     1     2 ar  
     2     1    13 1   
     3     1    15 ar  
     4     2    11 1   
     5     2    14 ar  
     6     3    14 1   
     7     3    21 1   
     8     3    22 1   
     9     3    23 1   
    10     4    16 1   
    11     4    24 1   
    12     4    25 1   
    13     4    26 1   
    14     5     6 1   
    15     5    19 1   
    16     5    27 1   
    17     5    28 1   
    18     6     7 1   
    19     6    29 1   
    20     6    30 1   
    21     7     8 1   
    22     7    20 1   
    23     7    31 1   
    24     8     9 1   
    25     8    32 1   
    26     8    33 1   
    27     9    10 1   
    28     9    19 1   
    29     9    34 1   
    30    10    35 1   
    31    10    36 1   
    32    10    47 1   
    33    11    12 1   
    34    11    40 1   
    35    12    13 2   
    36    12    41 1   
    37    13    42 1   
    38    14    17 ar  
    39    15    16 ar  
    40    15    18 1   
    41    16    17 ar  
    42    17    43 1   
    43    18    19 1   
    44    18    44 1   
    45    18    45 1   
    46    20    48 1   
    47    37    48 1   
    48    38    48 1   
    49    39    48 1   
    50    46    47 1   
@<TRIPOS>SUBSTRUCTURE
     1 JGN         1 TEMP              0 ****  ****    0 ROOT
