@<TRIPOS>MOLECULE
JGP
   35    37     1     0     0
SMALL
No Charge or Current Charge


@<TRIPOS>ATOM
      1 C10          1.6950     1.2350     0.0280 c3         1 JGP       0.107000
      2 C13          4.7230     0.1690     1.0730 c3         1 JGP      -0.070400
      3 C15          3.2260    -0.6080    -0.8930 c3         1 JGP       0.107000
      4 C17         -5.0670    -0.1460     0.5240 c5         1 JGP       0.372600
      5 C01         -1.0230     0.7090    -1.4190 ca         1 JGP      -0.086000
      6 C02         -2.3470     1.1970    -1.3860 ca         1 JGP      -0.106000
      7 C03         -3.2790     0.5220    -0.5900 ca         1 JGP       0.067100
      8 C04         -2.9380    -0.5900     0.1250 ca         1 JGP       0.043100
      9 C05         -1.6360    -1.1040     0.1090 ca         1 JGP      -0.054000
     10 C06         -0.6490    -0.4310    -0.6530 ca         1 JGP      -0.142600
     11 O08          0.9200    -2.1970    -0.8390 o          1 JGP      -0.599100
     12 N09          1.8590    -0.1040    -0.6070 n          1 JGP      -0.402800
     13 C11          2.9700     1.9900     0.4740 c3         1 JGP      -0.094400
     14 C12          3.7850     1.2830     1.5820 c3         1 JGP      -0.070400
     15 C14          4.0200    -1.0080     0.3670 c3         1 JGP      -0.094400
     16 O16         -3.9920    -1.1130     0.8020 os         1 JGP      -0.341100
     17 O18         -4.5920     0.8420    -0.4590 os         1 JGP      -0.343100
     18 H101         1.1850     1.8940    -0.6830 h1         1 JGP       0.049700
     19 H102         1.0380     1.1260     0.9000 h1         1 JGP       0.049700
     20 H132         5.4600     0.6080     0.3880 hc         1 JGP       0.039950
     21 H131         5.2930    -0.2240     1.9240 hc         1 JGP       0.039950
     22 H152         3.1540    -1.4850    -1.5500 h1         1 JGP       0.049700
     23 H151         3.7840     0.1470    -1.4610 h1         1 JGP       0.049700
     24 H172        -5.3290     0.3730     1.4540 h2         1 JGP       0.066700
     25 H011        -0.2990     1.1970    -2.0670 ha         1 JGP       0.124000
     26 H021        -2.6410     2.0650    -1.9720 ha         1 JGP       0.136000
     27 H051        -1.3920    -1.9970     0.6820 ha         1 JGP       0.148000
     28 H111         3.6090     2.2050    -0.3910 hc         1 JGP       0.048950
     29 H112         2.6520     2.9660     0.8610 hc         1 JGP       0.048950
     30 H121         3.1040     0.8760     2.3400 hc         1 JGP       0.039950
     31 H122         4.4000     2.0350     2.0920 hc         1 JGP       0.039950
     32 H142         4.7900    -1.7300     0.0700 hc         1 JGP       0.048950
     33 H141         3.3600    -1.5300     1.0710 hc         1 JGP       0.048950
     34 C07          0.7540    -0.9910    -0.6910 c          1 JGP       0.612700
     35 H171        -5.9440    -0.6710     0.1270 h2         1 JGP       0.066700
@<TRIPOS>BOND
     1     1    12 1   
     2     1    13 1   
     3     1    18 1   
     4     1    19 1   
     5     2    14 1   
     6     2    15 1   
     7     2    20 1   
     8     2    21 1   
     9     3    12 1   
    10     3    15 1   
    11     3    22 1   
    12     3    23 1   
    13     4    16 1   
    14     4    17 1   
    15     4    24 1   
    16     4    35 1   
    17     5     6 ar  
    18     5    10 ar  
    19     5    25 1   
    20     6     7 ar  
    21     6    26 1   
    22     7     8 ar  
    23     7    17 1   
    24     8     9 ar  
    25     8    16 1   
    26     9    10 ar  
    27     9    27 1   
    28    10    34 1   
    29    11    34 2   
    30    12    34 1   
    31    13    14 1   
    32    13    28 1   
    33    13    29 1   
    34    14    30 1   
    35    14    31 1   
    36    15    32 1   
    37    15    33 1   
@<TRIPOS>SUBSTRUCTURE
     1 JGP         1 TEMP              0 ****  ****    0 ROOT
