@<TRIPOS>MOLECULE
JGP
   35    37     1     0     0
SMALL
abcg2


@<TRIPOS>ATOM
      1 C10          1.8090     1.4490    -0.4420 c3         1 JGP       0.107000
      2 C13          4.3450    -0.0150     1.2460 c3         1 JGP      -0.070400
      3 C15          3.2430    -0.5100    -1.0190 c3         1 JGP       0.107000
      4 C17         -4.8150    -0.1670     0.7770 c5         1 JGP       0.372600
      5 C01         -1.0080     0.6210    -1.5190 ca         1 JGP      -0.086000
      6 C02         -2.3430     1.0390    -1.4880 ca         1 JGP      -0.106000
      7 C03         -3.1300     0.5170    -0.4930 ca         1 JGP       0.067100
      8 C04         -2.6360    -0.3940     0.4300 ca         1 JGP       0.043100
      9 C05         -1.3390    -0.8330     0.3970 ca         1 JGP      -0.054000
     10 C06         -0.5080    -0.2880    -0.5970 ca         1 JGP      -0.142600
     11 O08          1.0330    -2.0470    -0.7880 o          1 JGP      -0.599100
     12 N09          1.9150     0.0320    -0.7640 n          1 JGP      -0.402800
     13 C11          2.9070     1.9510     0.4940 c3         1 JGP      -0.094400
     14 C12          3.2720     1.0010     1.6350 c3         1 JGP      -0.070400
     15 C14          3.9140    -1.0690     0.2330 c3         1 JGP      -0.094400
     16 O16         -3.6180    -0.7230     1.3040 os         1 JGP      -0.341100
     17 O18         -4.4300     0.7730    -0.2180 os         1 JGP      -0.343100
     18 H101         1.8190     2.0490    -1.3570 h1         1 JGP       0.049700
     19 H102         0.8470     1.6180     0.0350 h1         1 JGP       0.049700
     20 H132         5.2030     0.5350     0.8470 hc         1 JGP       0.039950
     21 H131         4.7040    -0.5240     2.1440 hc         1 JGP       0.039950
     22 H152         3.1600    -1.2920    -1.7730 h1         1 JGP       0.049700
     23 H151         3.8500     0.2840    -1.4590 h1         1 JGP       0.049700
     24 H172        -5.3690     0.3380     1.5680 h2         1 JGP       0.066700
     25 H011        -0.3640     1.0140    -2.2950 ha         1 JGP       0.124000
     26 H021        -2.7290     1.7390    -2.2150 ha         1 JGP       0.136000
     27 H051        -0.9640    -1.5540     1.1110 ha         1 JGP       0.148000
     28 H111         3.8120     2.1940    -0.0690 hc         1 JGP       0.048950
     29 H112         2.5500     2.9020     0.8950 hc         1 JGP       0.048950
     30 H121         2.3770     0.4910     2.0090 hc         1 JGP       0.039950
     31 H122         3.6550     1.5910     2.4710 hc         1 JGP       0.039950
     32 H142         4.7940    -1.6380    -0.0800 hc         1 JGP       0.048950
     33 H141         3.2370    -1.7860     0.7030 hc         1 JGP       0.048950
     34 C07          0.8810    -0.8310    -0.7150 c          1 JGP       0.612700
     35 H171        -5.4250    -0.9570     0.3240 h2         1 JGP       0.066700
@<TRIPOS>BOND
     1     1    12 1   
     2     1    13 1   
     3     1    18 1   
     4     1    19 1   
     5     2    14 1   
     6     2    15 1   
     7     2    20 1   
     8     2    21 1   
     9     3    12 1   
    10     3    15 1   
    11     3    22 1   
    12     3    23 1   
    13     4    16 1   
    14     4    17 1   
    15     4    24 1   
    16     4    35 1   
    17     5     6 ar  
    18     5    10 ar  
    19     5    25 1   
    20     6     7 ar  
    21     6    26 1   
    22     7     8 ar  
    23     7    17 1   
    24     8     9 ar  
    25     8    16 1   
    26     9    10 ar  
    27     9    27 1   
    28    10    34 1   
    29    11    34 2   
    30    12    34 1   
    31    13    14 1   
    32    13    28 1   
    33    13    29 1   
    34    14    30 1   
    35    14    31 1   
    36    15    32 1   
    37    15    33 1   
@<TRIPOS>SUBSTRUCTURE
     1 JGP         1 TEMP              0 ****  ****    0 ROOT
