@<TRIPOS>MOLECULE
JGQ
   60    63     1     0     0
SMALL
No Charge or Current Charge


@<TRIPOS>ATOM
      1 C1          -2.9080     1.1150     0.9190 ca         1 JGQ      -0.058800
      2 C2          -3.9090     2.0110     0.6620 ca         1 JGQ      -0.080200
      3 C3          -3.7040     3.1210    -0.1730 ca         1 JGQ      -0.073300
      4 C11         -4.8220     4.1160    -0.4550 c3         1 JGQ      -0.038800
      5 C14         -1.5530    -1.6150    -0.6260 c6         1 JGQ       0.169800
      6 C15         -1.3730    -2.6090    -1.7940 c6         1 JGQ      -0.105400
      7 C16         -0.1750    -3.5540    -1.5380 c6         1 JGQ       0.169300
      8 C17          1.0840    -2.7040    -1.2760 c6         1 JGQ      -0.064400
      9 C18          0.8640    -1.6870    -0.1230 c6         1 JGQ       0.239800
     10 C19          2.1640    -0.8990     0.1250 ca         1 JGQ      -0.129300
     11 C20          2.8980    -1.1000     1.3090 ca         1 JGQ      -0.125000
     12 C21          4.0840    -0.3820     1.5440 ca         1 JGQ      -0.097500
     13 C22          4.5640     0.5560     0.6000 ca         1 JGQ      -0.126600
     14 C23          3.8180     0.7540    -0.5860 ca         1 JGQ      -0.097500
     15 C24          2.6340     0.0350    -0.8200 ca         1 JGQ      -0.125000
     16 C25          5.8480     1.3340     0.8540 c          1 JGQ       0.711600
     17 C30         -1.3980    -6.3210     0.6960 c3         1 JGQ      -0.091100
     18 C4          -2.4220     3.2860    -0.7420 ca         1 JGQ      -0.167000
     19 C5          -1.3780     2.3550    -0.4780 ca         1 JGQ       0.135100
     20 C6          -1.6210     1.2400     0.3640 ca         1 JGQ      -0.066300
     21 C7          -3.4570     0.1210     1.7960 cc         1 JGQ      -0.244200
     22 C8          -4.7800     0.4640     2.0350 cd         1 JGQ      -0.174100
     23 N9          -5.0750     1.6530     1.3260 na         1 JGQ      -0.231700
     24 O10         -0.1130     2.5100    -1.0180 os         1 JGQ      -0.312100
     25 N13         -0.3210    -0.8090    -0.3870 n3         1 JGQ      -0.702600
     26 O26          6.2330     2.1270     0.0050 o          1 JGQ      -0.724500
     27 O27          6.4550     1.1390     1.8990 o          1 JGQ      -0.724500
     28 C31          0.2270     3.5950    -1.8970 c3         1 JGQ       0.147900
     29 H1          -5.1720     4.5860     0.4720 hc         1 JGQ       0.033700
     30 H2          -4.4930     4.9170    -1.1280 hc         1 JGQ       0.033700
     31 H3          -5.6790     3.6200    -0.9260 hc         1 JGQ       0.033700
     32 H6          -2.4020    -0.9600    -0.8700 h1         1 JGQ       0.029700
     33 H7          -1.8260    -2.1720     0.2830 h1         1 JGQ       0.029700
     34 H8          -2.2990    -3.1740    -1.9580 hc         1 JGQ       0.041700
     35 H9          -1.1990    -2.0460    -2.7210 hc         1 JGQ       0.041700
     36 H10         -0.0030    -4.1670    -2.4340 h1         1 JGQ       0.022700
     37 H11          1.9300    -3.3610    -1.0370 hc         1 JGQ       0.060200
     38 H12          1.3580    -2.1700    -2.1950 hc         1 JGQ       0.060200
     39 H13          0.6600    -2.2710     0.7880 h1         1 JGQ       0.029700
     40 H14          2.5520    -1.8150     2.0510 ha         1 JGQ       0.093000
     41 H15          4.6310    -0.5600     2.4680 ha         1 JGQ       0.123000
     42 H16          4.1540     1.4700    -1.3330 ha         1 JGQ       0.123000
     43 H17          2.0730     0.2090    -1.7350 ha         1 JGQ       0.093000
     44 H18         -1.2820    -6.0490    -1.4500 h1         1 JGQ       0.012200
     45 H19         -2.4270    -4.9580    -0.6250 h1         1 JGQ       0.012200
     46 H20         -0.4260    -6.8210     0.7840 hc         1 JGQ       0.037700
     47 H21         -1.5690    -5.7240     1.6000 hc         1 JGQ       0.037700
     48 H22         -2.1770    -7.0900     0.6410 hc         1 JGQ       0.037700
     49 H23         -2.2490     4.1430    -1.3860 ha         1 JGQ       0.111000
     50 H24         -2.9510    -0.7490     2.2070 ha         1 JGQ       0.206000
     51 H25         -5.5250    -0.0410     2.6460 h4         1 JGQ       0.201000
     52 H26         -5.9620     2.1470     1.3050 hn         1 JGQ       0.340000
     53 H29          1.2770     3.5150    -2.2070 h1         1 JGQ       0.036700
     54 H30         -0.3970     3.5750    -2.8000 h1         1 JGQ       0.036700
     55 H31          0.0930     4.5610    -1.3950 h1         1 JGQ       0.036700
     56 C12         -0.5200     0.2230     0.6710 c3         1 JGQ       0.223100
     57 H4           0.4060     0.7910     0.8310 h1         1 JGQ       0.052700
     58 H5          -0.7390    -0.2650     1.6300 h1         1 JGQ       0.052700
     59 O28         -0.3990    -4.4490    -0.4240 os         1 JGQ      -0.459000
     60 C29         -1.4400    -5.4320    -0.5560 c3         1 JGQ       0.165600
@<TRIPOS>BOND
     1     1     2 ar  
     2     1    20 ar  
     3     1    21 1   
     4     2     3 ar  
     5     2    23 1   
     6     3     4 1   
     7     3    18 ar  
     8     4    29 1   
     9     4    30 1   
    10     4    31 1   
    11     5     6 1   
    12     5    25 1   
    13     5    32 1   
    14     5    33 1   
    15     6     7 1   
    16     6    34 1   
    17     6    35 1   
    18     7     8 1   
    19     7    36 1   
    20     7    59 1   
    21     8     9 1   
    22     8    37 1   
    23     8    38 1   
    24     9    10 1   
    25     9    25 1   
    26     9    39 1   
    27    10    11 ar  
    28    10    15 ar  
    29    11    12 ar  
    30    11    40 1   
    31    12    13 ar  
    32    12    41 1   
    33    13    14 ar  
    34    13    16 1   
    35    14    15 ar  
    36    14    42 1   
    37    15    43 1   
    38    16    26 1   
    39    16    27 1   
    40    17    46 1   
    41    17    47 1   
    42    17    48 1   
    43    17    60 1   
    44    18    19 ar  
    45    18    49 1   
    46    19    20 ar  
    47    19    24 1   
    48    20    56 1   
    49    21    22 2   
    50    21    50 1   
    51    22    23 1   
    52    22    51 1   
    53    23    52 1   
    54    24    28 1   
    55    25    56 1   
    56    28    53 1   
    57    28    54 1   
    58    28    55 1   
    59    44    60 1   
    60    45    60 1   
    61    56    57 1   
    62    56    58 1   
    63    59    60 1   
@<TRIPOS>SUBSTRUCTURE
     1 JGQ         1 TEMP              0 ****  ****    0 ROOT
