@<TRIPOS>MOLECULE
JGQ
   60    63     1     0     0
SMALL
abcg2


@<TRIPOS>ATOM
      1 C1          -2.9210     1.0660     0.9540 ca         1 JGQ      -0.058800
      2 C2          -3.8920     2.0330     0.6190 ca         1 JGQ      -0.080200
      3 C3          -3.6240     3.0990    -0.2360 ca         1 JGQ      -0.073300
      4 C11         -4.6760     4.1070    -0.5850 c3         1 JGQ      -0.038800
      5 C14         -1.5320    -1.6110    -0.5800 c6         1 JGQ       0.169800
      6 C15         -1.3490    -2.5710    -1.7390 c6         1 JGQ      -0.105400
      7 C16         -0.1710    -3.5060    -1.4960 c6         1 JGQ       0.169300
      8 C17          1.0530    -2.6580    -1.1990 c6         1 JGQ      -0.064400
      9 C18          0.8230    -1.6720    -0.0460 c6         1 JGQ       0.239800
     10 C19          2.0790    -0.8560     0.1490 ca         1 JGQ      -0.129300
     11 C20          2.9100    -1.0850     1.2390 ca         1 JGQ      -0.125000
     12 C21          4.0850    -0.3640     1.4050 ca         1 JGQ      -0.097500
     13 C22          4.4630     0.6080     0.4840 ca         1 JGQ      -0.126600
     14 C23          3.6310     0.8300    -0.6130 ca         1 JGQ      -0.097500
     15 C24          2.4580     0.1120    -0.7790 ca         1 JGQ      -0.125000
     16 C25          5.7440     1.4070     0.6740 c          1 JGQ       0.711600
     17 C30         -1.2940    -6.3160     0.5980 c3         1 JGQ      -0.091100
     18 C4          -2.3380     3.1690    -0.7460 ca         1 JGQ      -0.167000
     19 C5          -1.3540     2.2130    -0.4280 ca         1 JGQ       0.135100
     20 C6          -1.6240     1.1470     0.4240 ca         1 JGQ      -0.066300
     21 C7          -3.5620     0.1370     1.8340 cc         1 JGQ      -0.244200
     22 C8          -4.8510     0.5650     1.9930 cd         1 JGQ      -0.174100
     23 N9          -5.0530     1.6990     1.2660 na         1 JGQ      -0.231700
     24 O10         -0.0930     2.2780    -0.9180 os         1 JGQ      -0.312100
     25 N13         -0.3340    -0.8250    -0.3230 n3         1 JGQ      -0.702600
     26 O26          6.0270     2.2320    -0.2170 o          1 JGQ      -0.724500
     27 O27          6.4020     1.1730     1.7060 o          1 JGQ      -0.724500
     28 C31          0.2890     3.3850    -1.7000 c3         1 JGQ       0.147900
     29 H1          -5.1080     4.5630     0.3080 hc         1 JGQ       0.033700
     30 H2          -4.2690     4.9080    -1.2010 hc         1 JGQ       0.033700
     31 H3          -5.4980     3.6500    -1.1390 hc         1 JGQ       0.033700
     32 H6          -2.3490    -0.9250    -0.8100 h1         1 JGQ       0.029700
     33 H7          -1.8490    -2.1670     0.3200 h1         1 JGQ       0.029700
     34 H8          -2.2770    -3.1210    -1.9090 hc         1 JGQ       0.041700
     35 H9          -1.1530    -2.0080    -2.6550 hc         1 JGQ       0.041700
     36 H10          0.0090    -4.1090    -2.3990 h1         1 JGQ       0.022700
     37 H11          1.9070    -3.2960    -0.9610 hc         1 JGQ       0.060200
     38 H12          1.3170    -2.1000    -2.1010 hc         1 JGQ       0.060200
     39 H13          0.6640    -2.2620     0.8740 h1         1 JGQ       0.029700
     40 H14          2.6320    -1.8320     1.9750 ha         1 JGQ       0.093000
     41 H15          4.7150    -0.5540     2.2640 ha         1 JGQ       0.123000
     42 H16          3.9060     1.5800    -1.3430 ha         1 JGQ       0.123000
     43 H17          1.8160     0.3130    -1.6270 ha         1 JGQ       0.093000
     44 H18         -1.3070    -5.8290    -1.5000 h1         1 JGQ       0.012200
     45 H19         -2.3770    -4.8370    -0.5150 h1         1 JGQ       0.012200
     46 H20         -0.3480    -6.8580     0.5730 hc         1 JGQ       0.037700
     47 H21         -1.3830    -5.8270     1.5690 hc         1 JGQ       0.037700
     48 H22         -2.1010    -7.0430     0.5160 hc         1 JGQ       0.037700
     49 H23         -2.1020     3.9920    -1.4080 ha         1 JGQ       0.111000
     50 H24         -3.1300    -0.7400     2.2890 ha         1 JGQ       0.206000
     51 H25         -5.6500     0.1380     2.5770 h4         1 JGQ       0.201000
     52 H26         -5.9230     2.2010     1.2160 hn         1 JGQ       0.340000
     53 H29          1.3420     3.2460    -1.9360 h1         1 JGQ       0.036700
     54 H30         -0.2700     3.4470    -2.6380 h1         1 JGQ       0.036700
     55 H31          0.1740     4.3320    -1.1640 h1         1 JGQ       0.036700
     56 C12         -0.5730     0.1250     0.7580 c3         1 JGQ       0.223100
     57 H4           0.3660     0.6340     0.9810 h1         1 JGQ       0.052700
     58 H5          -0.8640    -0.3980     1.6850 h1         1 JGQ       0.052700
     59 O28         -0.3600    -4.3640    -0.3890 os         1 JGQ      -0.459000
     60 C29         -1.3900    -5.3140    -0.5320 c3         1 JGQ       0.165600
@<TRIPOS>BOND
     1     1     2 ar  
     2     1    20 ar  
     3     1    21 1   
     4     2     3 ar  
     5     2    23 1   
     6     3     4 1   
     7     3    18 ar  
     8     4    29 1   
     9     4    30 1   
    10     4    31 1   
    11     5     6 1   
    12     5    25 1   
    13     5    32 1   
    14     5    33 1   
    15     6     7 1   
    16     6    34 1   
    17     6    35 1   
    18     7     8 1   
    19     7    36 1   
    20     7    59 1   
    21     8     9 1   
    22     8    37 1   
    23     8    38 1   
    24     9    10 1   
    25     9    25 1   
    26     9    39 1   
    27    10    11 ar  
    28    10    15 ar  
    29    11    12 ar  
    30    11    40 1   
    31    12    13 ar  
    32    12    41 1   
    33    13    14 ar  
    34    13    16 1   
    35    14    15 ar  
    36    14    42 1   
    37    15    43 1   
    38    16    26 1   
    39    16    27 1   
    40    17    46 1   
    41    17    47 1   
    42    17    48 1   
    43    17    60 1   
    44    18    19 ar  
    45    18    49 1   
    46    19    20 ar  
    47    19    24 1   
    48    20    56 1   
    49    21    22 2   
    50    21    50 1   
    51    22    23 1   
    52    22    51 1   
    53    23    52 1   
    54    24    28 1   
    55    25    56 1   
    56    28    53 1   
    57    28    54 1   
    58    28    55 1   
    59    44    60 1   
    60    45    60 1   
    61    56    57 1   
    62    56    58 1   
    63    59    60 1   
@<TRIPOS>SUBSTRUCTURE
     1 JGQ         1 TEMP              0 ****  ****    0 ROOT
