@<TRIPOS>MOLECULE
JGR
   80    84     1     0     0
SMALL
No Charge or Current Charge


@<TRIPOS>ATOM
      1 CBC        -41.9760    34.0330    -8.0990 c3         1 JGR      -0.049800
      2 CAX        -41.9610    35.1050    -7.0120 ca         1 JGR      -0.043800
      3 CAY        -41.9280    36.4630    -7.3860 ca         1 JGR      -0.149500
      4 CAZ        -41.9430    37.4660    -6.4070 ca         1 JGR       0.175000
      5 FBS        -41.9140    38.7640    -6.7780 f          1 JGR      -0.180000
      6 CBA        -41.9980    37.1330    -5.0460 ca         1 JGR      -0.149500
      7 CBB        -42.0280    35.7830    -4.6500 ca         1 JGR      -0.043800
      8 CBD        -42.1010    35.4280    -3.1690 c3         1 JGR      -0.049800
      9 CAW        -41.9960    34.7700    -5.6350 ca         1 JGR       0.060100
     10 OAV        -42.0220    33.4510    -5.2360 os         1 JGR      -0.240200
     11 CAO        -40.9940    32.5710    -5.4990 ca         1 JGR       0.140100
     12 CAN        -39.6730    33.0540    -5.5900 ca         1 JGR      -0.158000
     13 CAM        -38.6310    32.1980    -5.9760 ca         1 JGR      -0.107000
     14 CAL        -38.8910    30.8550    -6.2870 ca         1 JGR       0.236000
     15 NAP        -37.8220    30.0520    -6.6890 nu         1 JGR      -0.883100
     16 SAQ        -37.8230    28.7320    -7.6980 s6         1 JGR       1.210100
     17 OAR        -38.5970    27.6890    -7.0220 o          1 JGR      -0.531000
     18 OAS        -36.4130    28.5140    -8.0250 o          1 JGR      -0.531000
     19 CAT        -38.6960    29.2660    -9.1810 c3         1 JGR      -0.348400
     20 CAU        -38.0770    30.5050    -9.8740 c3         1 JGR      -0.066100
     21 CAK        -40.2080    30.3690    -6.1750 ca         1 JGR      -0.103000
     22 CAJ        -41.2730    31.2060    -5.7670 ca         1 JGR      -0.026800
     23 CAF        -42.6320    30.6400    -5.6540 cc         1 JGR      -0.219000
     24 CAE        -43.0330    29.7870    -6.6720 cd         1 JGR      -0.004400
     25 NAD        -44.3330    29.2600    -6.7390 n          1 JGR      -0.287000
     26 CBQ        -44.7010    28.3410    -7.8400 c3         1 JGR       0.081300
     27 CAC        -45.3370    29.5850    -5.7880 c          1 JGR       0.593600
     28 OBR        -46.4740    29.1330    -5.8370 o          1 JGR      -0.549000
     29 CAB        -44.8990    30.5100    -4.7350 cd         1 JGR      -0.251600
     30 CAI        -45.5810    31.0520    -3.6190 cd         1 JGR      -0.093000
     31 CAA        -43.6360    31.0040    -4.7010 cc         1 JGR       0.302800
     32 OAG        -43.4390    31.7960    -3.5960 os         1 JGR      -0.236000
     33 CAH        -44.6600    31.8330    -2.9670 cc         1 JGR       0.182500
     34 CBE        -44.8860    32.5970    -1.7360 ca         1 JGR      -0.121500
     35 CBJ        -46.1880    32.8950    -1.2830 ca         1 JGR      -0.091000
     36 CBI        -46.3900    33.6480    -0.1100 ca         1 JGR      -0.083300
     37 CBO        -47.8130    33.9460     0.3540 c3         1 JGR      -0.043300
     38 CBF        -43.7820    33.0610    -0.9930 ca         1 JGR      -0.091000
     39 CBG        -43.9630    33.8200     0.1780 ca         1 JGR      -0.083300
     40 CBP        -42.7460    34.3150     0.9520 c3         1 JGR      -0.043300
     41 CBH        -45.2720    34.1190     0.6130 ca         1 JGR       0.101100
     42 OBK        -45.4550    34.8690     1.7510 os         1 JGR      -0.366100
     43 CBL        -45.6140    36.2960     1.6270 c3         1 JGR       0.163600
     44 CBM        -45.8030    36.9100     3.0370 c3         1 JGR       0.159600
     45 OBN        -47.0590    36.5160     3.6220 oh         1 JGR      -0.659000
     46 H1         -40.9810    33.5930    -8.2310 hc         1 JGR       0.053033
     47 H2         -42.6740    33.2230    -7.8520 hc         1 JGR       0.053033
     48 H3         -42.2880    34.4430    -9.0660 hc         1 JGR       0.053033
     49 H4         -41.8950    36.7440    -8.4350 ha         1 JGR       0.136500
     50 H5         -42.0200    37.9270    -4.3040 ha         1 JGR       0.136500
     51 H6         -41.3670    34.6580    -2.9060 hc         1 JGR       0.053033
     52 H7         -41.9060    36.2980    -2.5310 hc         1 JGR       0.053033
     53 H8         -43.0960    35.0460    -2.9150 hc         1 JGR       0.053033
     54 H9         -39.4540    34.0980    -5.3790 ha         1 JGR       0.134000
     55 H10        -37.6190    32.5880    -6.0480 ha         1 JGR       0.118000
     56 H11        -36.9280    30.4980    -6.8430 hn         1 JGR       0.496000
     57 H12        -39.7260    29.4720    -8.8740 h1         1 JGR       0.100700
     58 H13        -38.6890    28.4040    -9.8570 h1         1 JGR       0.100700
     59 H14        -38.6430    30.7560   -10.7790 hc         1 JGR       0.048033
     60 H15        -38.0960    31.3810    -9.2130 hc         1 JGR       0.048033
     61 H16        -37.0370    30.3150   -10.1670 hc         1 JGR       0.048033
     62 H17        -40.4060    29.3200    -6.3610 ha         1 JGR       0.151000
     63 H18        -42.4010    29.4840    -7.5010 h4         1 JGR       0.202000
     64 H19        -45.0650    27.3920    -7.4240 h1         1 JGR       0.055700
     65 H20        -45.4940    28.7930    -8.4490 h1         1 JGR       0.055700
     66 H21        -43.8370    28.1330    -8.4830 h1         1 JGR       0.055700
     67 H22        -46.6120    30.8710    -3.3340 ha         1 JGR       0.156000
     68 H23        -47.0530    32.5540    -1.8460 ha         1 JGR       0.122500
     69 H24        -47.9060    33.8590     1.4430 hc         1 JGR       0.047200
     70 H25        -48.1120    34.9620     0.0710 hc         1 JGR       0.047200
     71 H26        -48.5360    33.2520    -0.0890 hc         1 JGR       0.047200
     72 H27        -42.7720    32.8350    -1.3300 ha         1 JGR       0.122500
     73 H28        -42.6110    35.3950     0.8220 hc         1 JGR       0.047200
     74 H29        -42.8500    34.1150     2.0260 hc         1 JGR       0.047200
     75 H30        -41.8240    33.8240     0.6180 hc         1 JGR       0.047200
     76 H31        -44.7230    36.7380     1.1620 h1         1 JGR       0.039700
     77 H32        -46.4800    36.5430     0.9990 h1         1 JGR       0.039700
     78 H33        -44.9660    36.5990     3.6760 h1         1 JGR       0.031700
     79 H34        -45.7590    38.0040     2.9480 h1         1 JGR       0.031700
     80 H35        -47.0850    36.8990     4.5270 ho         1 JGR       0.442000
@<TRIPOS>BOND
     1     1     2 1   
     2     1    46 1   
     3     1    47 1   
     4     1    48 1   
     5     2     3 ar  
     6     2     9 ar  
     7     3     4 ar  
     8     3    49 1   
     9     4     5 1   
    10     4     6 ar  
    11     6     7 ar  
    12     6    50 1   
    13     7     8 1   
    14     7     9 ar  
    15     8    51 1   
    16     8    52 1   
    17     8    53 1   
    18     9    10 1   
    19    10    11 1   
    20    11    12 ar  
    21    11    22 ar  
    22    12    13 ar  
    23    12    54 1   
    24    13    14 ar  
    25    13    55 1   
    26    14    15 1   
    27    14    21 ar  
    28    15    16 1   
    29    15    56 1   
    30    16    17 2   
    31    16    18 2   
    32    16    19 1   
    33    19    20 1   
    34    19    57 1   
    35    19    58 1   
    36    20    59 1   
    37    20    60 1   
    38    20    61 1   
    39    21    22 ar  
    40    21    62 1   
    41    22    23 1   
    42    23    24 2   
    43    23    31 1   
    44    24    25 1   
    45    24    63 1   
    46    25    26 1   
    47    25    27 1   
    48    26    64 1   
    49    26    65 1   
    50    26    66 1   
    51    27    28 2   
    52    27    29 1   
    53    29    30 1   
    54    29    31 2   
    55    30    33 2   
    56    30    67 1   
    57    31    32 1   
    58    32    33 1   
    59    33    34 1   
    60    34    35 ar  
    61    34    38 ar  
    62    35    36 ar  
    63    35    68 1   
    64    36    37 1   
    65    36    41 ar  
    66    37    69 1   
    67    37    70 1   
    68    37    71 1   
    69    38    39 ar  
    70    38    72 1   
    71    39    40 1   
    72    39    41 ar  
    73    40    73 1   
    74    40    74 1   
    75    40    75 1   
    76    41    42 1   
    77    42    43 1   
    78    43    44 1   
    79    43    76 1   
    80    43    77 1   
    81    44    45 1   
    82    44    78 1   
    83    44    79 1   
    84    45    80 1   
@<TRIPOS>SUBSTRUCTURE
     1 JGR         1 TEMP              0 ****  ****    0 ROOT
