@<TRIPOS>MOLECULE
JGR
   80    84     1     0     0
SMALL
abcg2


@<TRIPOS>ATOM
      1 CBC        -42.0690    34.3420    -8.7350 c3         1 JGR      -0.049800
      2 CAX        -42.1290    35.3580    -7.6300 ca         1 JGR      -0.043800
      3 CAY        -42.0310    36.7230    -7.8960 ca         1 JGR      -0.149500
      4 CAZ        -42.0960    37.6170    -6.8460 ca         1 JGR       0.175000
      5 FBS        -42.0030    38.9470    -7.1200 f          1 JGR      -0.180000
      6 CBA        -42.2590    37.2240    -5.5320 ca         1 JGR      -0.149500
      7 CBB        -42.3580    35.8640    -5.2400 ca         1 JGR      -0.043800
      8 CBD        -42.5430    35.3780    -3.8320 c3         1 JGR      -0.049800
      9 CAW        -42.2850    34.9610    -6.3010 ca         1 JGR       0.060100
     10 OAV        -42.4500    33.6090    -6.0240 os         1 JGR      -0.240200
     11 CAO        -41.3430    32.8040    -5.9300 ca         1 JGR       0.140100
     12 CAN        -40.0450    33.2970    -5.8980 ca         1 JGR      -0.158000
     13 CAM        -38.9710    32.4200    -5.8410 ca         1 JGR      -0.107000
     14 CAL        -39.1830    31.0450    -5.7880 ca         1 JGR       0.236000
     15 NAP        -38.0540    30.1850    -5.6860 nu         1 JGR      -0.883100
     16 SAQ        -37.9170    28.7520    -6.5020 s6         1 JGR       1.210100
     17 OAR        -38.9290    27.8470    -6.0080 o          1 JGR      -0.531000
     18 OAS        -36.5270    28.3820    -6.3640 o          1 JGR      -0.531000
     19 CAT        -38.2900    29.1010    -8.2150 c3         1 JGR      -0.348400
     20 CAU        -37.3450    30.1140    -8.8400 c3         1 JGR      -0.066100
     21 CAK        -40.4890    30.5560    -5.7980 ca         1 JGR      -0.103000
     22 CAJ        -41.5750    31.4230    -5.8860 ca         1 JGR      -0.026800
     23 CAF        -42.9550    30.8980    -5.9380 cc         1 JGR      -0.219000
     24 CAE        -43.4000    30.1090    -6.9620 cd         1 JGR      -0.004400
     25 NAD        -44.6790    29.6270    -7.0420 n          1 JGR      -0.287000
     26 CBQ        -45.0620    28.7950    -8.1850 c3         1 JGR       0.081300
     27 CAC        -45.6780    29.8870    -6.0930 c          1 JGR       0.593600
     28 OBR        -46.8150    29.4200    -6.2350 o          1 JGR      -0.549000
     29 CAB        -45.2300    30.7040    -5.0050 cd         1 JGR      -0.251600
     30 CAI        -45.8680    31.1770    -3.8140 cd         1 JGR      -0.093000
     31 CAA        -43.9270    31.1660    -4.9570 cc         1 JGR       0.302800
     32 OAG        -43.7270    31.8730    -3.8230 os         1 JGR      -0.236000
     33 CAH        -44.9260    31.8780    -3.1200 cc         1 JGR       0.182500
     34 CBE        -44.9250    32.5720    -1.8460 ca         1 JGR      -0.121500
     35 CBJ        -46.1160    32.7320    -1.1280 ca         1 JGR      -0.091000
     36 CBI        -46.1350    33.3760     0.1020 ca         1 JGR      -0.083300
     37 CBO        -47.4120    33.5200     0.8820 c3         1 JGR      -0.043300
     38 CBF        -43.7370    33.0710    -1.3040 ca         1 JGR      -0.091000
     39 CBG        -43.7210    33.7280    -0.0770 ca         1 JGR      -0.083300
     40 CBP        -42.4310    34.2460     0.4970 c3         1 JGR      -0.043300
     41 CBH        -44.9290    33.8790     0.6100 ca         1 JGR       0.101100
     42 OBK        -44.9340    34.4790     1.8520 os         1 JGR      -0.366100
     43 CBL        -45.0810    35.9080     1.8370 c3         1 JGR       0.163600
     44 CBM        -45.1970    36.4010     3.2540 c3         1 JGR       0.159600
     45 OBN        -46.4490    35.9780     3.7980 oh         1 JGR      -0.659000
     46 H1         -41.1630    33.7350    -8.6610 hc         1 JGR       0.053033
     47 H2         -42.9160    33.6560    -8.6800 hc         1 JGR       0.053033
     48 H3         -42.0750    34.8310    -9.7070 hc         1 JGR       0.053033
     49 H4         -41.9120    37.0830    -8.9100 ha         1 JGR       0.136500
     50 H5         -42.3110    37.9650    -4.7450 ha         1 JGR       0.136500
     51 H6         -41.7230    34.7220    -3.5300 hc         1 JGR       0.053033
     52 H7         -42.5890    36.2150    -3.1370 hc         1 JGR       0.053033
     53 H8         -43.4600    34.7950    -3.7370 hc         1 JGR       0.053033
     54 H9         -39.8670    34.3620    -5.9430 ha         1 JGR       0.134000
     55 H10        -37.9610    32.8100    -5.8370 ha         1 JGR       0.118000
     56 H11        -37.1630    30.6680    -5.6620 hn         1 JGR       0.496000
     57 H12        -39.3280    29.4360    -8.2290 h1         1 JGR       0.100700
     58 H13        -38.2410    28.1250    -8.7020 h1         1 JGR       0.100700
     59 H14        -37.6170    30.2500    -9.8870 hc         1 JGR       0.048033
     60 H15        -37.4160    31.0820    -8.3440 hc         1 JGR       0.048033
     61 H16        -36.3120    29.7690    -8.7950 hc         1 JGR       0.048033
     62 H17        -40.6730    29.4940    -5.7330 ha         1 JGR       0.151000
     63 H18        -42.7500    29.8370    -7.7790 h4         1 JGR       0.202000
     64 H19        -45.3920    27.8170    -7.8380 h1         1 JGR       0.055700
     65 H20        -45.8780    29.2660    -8.7300 h1         1 JGR       0.055700
     66 H21        -44.2010    28.6820    -8.8370 h1         1 JGR       0.055700
     67 H22        -46.8860    31.0010    -3.5110 ha         1 JGR       0.156000
     68 H23        -47.0440    32.3460    -1.5290 ha         1 JGR       0.122500
     69 H24        -47.3010    33.1190     1.8910 hc         1 JGR       0.047200
     70 H25        -47.7010    34.5680     0.9890 hc         1 JGR       0.047200
     71 H26        -48.2240    32.9920     0.3840 hc         1 JGR       0.047200
     72 H27        -42.8070    32.9390    -1.8390 ha         1 JGR       0.122500
     73 H28        -42.3620    35.3330     0.4040 hc         1 JGR       0.047200
     74 H29        -42.3490    34.0080     1.5580 hc         1 JGR       0.047200
     75 H30        -41.5800    33.8130    -0.0280 hc         1 JGR       0.047200
     76 H31        -44.2090    36.3690     1.3650 h1         1 JGR       0.039700
     77 H32        -45.9720    36.1820     1.2640 h1         1 JGR       0.039700
     78 H33        -44.3640    36.0080     3.8460 h1         1 JGR       0.031700
     79 H34        -45.1270    37.4940     3.2430 h1         1 JGR       0.031700
     80 H35        -46.4690    36.2150     4.7330 ho         1 JGR       0.442000
@<TRIPOS>BOND
     1     1     2 1   
     2     1    46 1   
     3     1    47 1   
     4     1    48 1   
     5     2     3 ar  
     6     2     9 ar  
     7     3     4 ar  
     8     3    49 1   
     9     4     5 1   
    10     4     6 ar  
    11     6     7 ar  
    12     6    50 1   
    13     7     8 1   
    14     7     9 ar  
    15     8    51 1   
    16     8    52 1   
    17     8    53 1   
    18     9    10 1   
    19    10    11 1   
    20    11    12 ar  
    21    11    22 ar  
    22    12    13 ar  
    23    12    54 1   
    24    13    14 ar  
    25    13    55 1   
    26    14    15 1   
    27    14    21 ar  
    28    15    16 1   
    29    15    56 1   
    30    16    17 2   
    31    16    18 2   
    32    16    19 1   
    33    19    20 1   
    34    19    57 1   
    35    19    58 1   
    36    20    59 1   
    37    20    60 1   
    38    20    61 1   
    39    21    22 ar  
    40    21    62 1   
    41    22    23 1   
    42    23    24 2   
    43    23    31 1   
    44    24    25 1   
    45    24    63 1   
    46    25    26 1   
    47    25    27 1   
    48    26    64 1   
    49    26    65 1   
    50    26    66 1   
    51    27    28 2   
    52    27    29 1   
    53    29    30 1   
    54    29    31 2   
    55    30    33 2   
    56    30    67 1   
    57    31    32 1   
    58    32    33 1   
    59    33    34 1   
    60    34    35 ar  
    61    34    38 ar  
    62    35    36 ar  
    63    35    68 1   
    64    36    37 1   
    65    36    41 ar  
    66    37    69 1   
    67    37    70 1   
    68    37    71 1   
    69    38    39 ar  
    70    38    72 1   
    71    39    40 1   
    72    39    41 ar  
    73    40    73 1   
    74    40    74 1   
    75    40    75 1   
    76    41    42 1   
    77    42    43 1   
    78    43    44 1   
    79    43    76 1   
    80    43    77 1   
    81    44    45 1   
    82    44    78 1   
    83    44    79 1   
    84    45    80 1   
@<TRIPOS>SUBSTRUCTURE
     1 JGR         1 TEMP              0 ****  ****    0 ROOT
