@<TRIPOS>MOLECULE
JGS
   24    25     1     0     0
SMALL
No Charge or Current Charge


@<TRIPOS>ATOM
      1 C10        -46.4000    13.1980    15.3840 cc         1 JGS       0.141500
      2 C01        -47.6280     7.5470    16.9100 ca         1 JGS      -0.126000
      3 C02        -48.7730     7.0720    16.2510 ca         1 JGS      -0.096000
      4 C03        -49.4830     7.9030    15.3550 ca         1 JGS      -0.109600
      5 C04        -49.0090     9.2200    15.1410 ca         1 JGS      -0.127000
      6 C05        -47.8610     9.7050    15.7980 ca         1 JGS      -0.081000
      7 C06        -47.1710     8.8550    16.6880 ca         1 JGS      -0.146000
      8 N07        -47.4620    11.0450    15.5180 ns         1 JGS      -0.116000
      9 C08        -46.4030    11.8290    15.9710 c          1 JGS       0.516600
     10 O09        -45.5530    11.4430    16.7700 o          1 JGS      -0.568100
     11 C11        -47.2780    13.7500    14.4930 cd         1 JGS      -0.228000
     12 C12        -46.8260    15.0610    14.2660 cd         1 JGS       0.257900
     13 N13        -45.7350    15.3490    14.9550 nc         1 JGS      -0.362300
     14 O14        -45.4450    14.1380    15.6920 os         1 JGS      -0.050700
     15 O16        -51.0980     6.2450    14.8540 o          1 JGS      -0.719000
     16 O17        -51.3130     8.1400    13.8700 o          1 JGS      -0.719000
     17 H011       -47.0920     6.8960    17.5970 ha         1 JGS       0.093000
     18 H021       -49.1070     6.0540    16.4410 ha         1 JGS       0.132000
     19 H041       -49.5420     9.8760    14.4550 ha         1 JGS       0.126000
     20 H061       -46.2830     9.1840    17.2160 ha         1 JGS       0.125000
     21 H071       -48.0700    11.5150    14.8610 hn         1 JGS       0.152000
     22 H111       -48.1480    13.2870    14.0430 ha         1 JGS       0.157000
     23 H121       -47.2590    15.8140    13.6200 h4         1 JGS       0.041100
     24 C15        -50.7270     7.3900    14.6380 c          1 JGS       0.706600
@<TRIPOS>BOND
     1     1     9 1   
     2     1    11 2   
     3     1    14 1   
     4     2     3 ar  
     5     2     7 ar  
     6     2    17 1   
     7     3     4 ar  
     8     3    18 1   
     9     4     5 ar  
    10     4    24 1   
    11     5     6 ar  
    12     5    19 1   
    13     6     7 ar  
    14     6     8 1   
    15     7    20 1   
    16     8     9 1   
    17     8    21 1   
    18     9    10 2   
    19    11    12 1   
    20    11    22 1   
    21    12    13 2   
    22    12    23 1   
    23    13    14 1   
    24    15    24 1   
    25    16    24 1   
@<TRIPOS>SUBSTRUCTURE
     1 JGS         1 TEMP              0 ****  ****    0 ROOT
