@<TRIPOS>MOLECULE
JGS
   24    25     1     0     0
SMALL
abcg2


@<TRIPOS>ATOM
      1 C10        -46.5220    13.1630    15.3140 cc         1 JGS       0.141500
      2 C01        -47.5930     7.6100    16.9010 ca         1 JGS      -0.126000
      3 C02        -48.7250     7.0880    16.2890 ca         1 JGS      -0.096000
      4 C03        -49.4570     7.8660    15.3900 ca         1 JGS      -0.109600
      5 C04        -49.0330     9.1630    15.1260 ca         1 JGS      -0.127000
      6 C05        -47.9000     9.6940    15.7480 ca         1 JGS      -0.081000
      7 C06        -47.1690     8.9100    16.6430 ca         1 JGS      -0.146000
      8 N07        -47.5660    11.0230    15.4180 ns         1 JGS      -0.116000
      9 C08        -46.5480    11.7870    15.8820 c          1 JGS       0.516600
     10 O09        -45.7010    11.4310    16.6930 o          1 JGS      -0.568100
     11 C11        -47.3010    13.8600    14.4420 cd         1 JGS      -0.228000
     12 C12        -46.6760    15.1290    14.3710 cd         1 JGS       0.257900
     13 N13        -45.6150    15.1910    15.1330 nc         1 JGS      -0.362300
     14 O14        -45.5090    13.9440    15.7390 os         1 JGS      -0.050700
     15 O16        -51.1080     6.1820    15.0810 o          1 JGS      -0.719000
     16 O17        -51.2300     8.0270    13.8120 o          1 JGS      -0.719000
     17 H011       -47.0240     7.0010    17.5930 ha         1 JGS       0.093000
     18 H021       -49.0520     6.0800    16.4980 ha         1 JGS       0.132000
     19 H041       -49.5980     9.7640    14.4250 ha         1 JGS       0.126000
     20 H061       -46.2920     9.3080    17.1240 ha         1 JGS       0.125000
     21 H071       -48.1890    11.4540    14.7520 hn         1 JGS       0.152000
     22 H111       -48.1860    13.5370    13.9210 ha         1 JGS       0.157000
     23 H121       -46.9670    15.9910    13.7900 h4         1 JGS       0.041100
     24 C15        -50.7060     7.3110    14.7020 c          1 JGS       0.706600
@<TRIPOS>BOND
     1     1     9 1   
     2     1    11 2   
     3     1    14 1   
     4     2     3 ar  
     5     2     7 ar  
     6     2    17 1   
     7     3     4 ar  
     8     3    18 1   
     9     4     5 ar  
    10     4    24 1   
    11     5     6 ar  
    12     5    19 1   
    13     6     7 ar  
    14     6     8 1   
    15     7    20 1   
    16     8     9 1   
    17     8    21 1   
    18     9    10 2   
    19    11    12 1   
    20    11    22 1   
    21    12    13 2   
    22    12    23 1   
    23    13    14 1   
    24    15    24 1   
    25    16    24 1   
@<TRIPOS>SUBSTRUCTURE
     1 JGS         1 TEMP              0 ****  ****    0 ROOT
