@<TRIPOS>MOLECULE
JGU
   73    77     1     0     0
SMALL
No Charge or Current Charge


@<TRIPOS>ATOM
      1 FBP        -37.4230   -15.6580     4.3370 f          1 JGU      -0.157000
      2 CBJ        -38.3280   -15.2670     3.4100 ca         1 JGU       0.193000
      3 CBK        -39.6200   -14.9130     3.8290 ca         1 JGU      -0.197000
      4 CBL        -40.5620   -14.4800     2.8850 ca         1 JGU       0.201000
      5 FBO        -41.8050   -14.1380     3.2880 f          1 JGU      -0.168000
      6 CBM        -40.2210   -14.3920     1.5260 ca         1 JGU      -0.161000
      7 CBN        -38.9260   -14.7460     1.1030 ca         1 JGU      -0.062000
      8 CBC        -37.9790   -15.1960     2.0410 ca         1 JGU       0.035100
      9 OBB        -36.7170   -15.5260     1.5980 os         1 JGU      -0.223200
     10 CAR        -36.0950   -16.7170     1.9090 ca         1 JGU       0.153100
     11 CAQ        -36.8700   -17.8840     2.0450 ca         1 JGU      -0.179000
     12 CAP        -36.2830   -19.0930     2.4420 ca         1 JGU      -0.064000
     13 CAO        -34.9000   -19.1590     2.7190 ca         1 JGU      -0.141300
     14 CAX        -34.2020   -20.4670     3.1530 c3         1 JGU       0.236300
     15 CAY        -33.2500   -20.9570     2.0380 c3         1 JGU      -0.099100
     16 CAZ        -35.1750   -21.6040     3.5510 c3         1 JGU      -0.099100
     17 OBA        -33.4090   -20.1880     4.3060 oh         1 JGU      -0.656000
     18 CAN        -34.1280   -17.9840     2.5630 ca         1 JGU      -0.064000
     19 CAJ        -34.6970   -16.7580     2.1460 ca         1 JGU      -0.053800
     20 CAF        -33.8220   -15.5750     1.9880 cc         1 JGU      -0.210000
     21 CAE        -32.8540   -15.3920     2.9660 cd         1 JGU      -0.011400
     22 NAD        -32.0170   -14.2650     2.9940 n          1 JGU      -0.284000
     23 CAK        -30.9900   -14.1350     4.0540 c3         1 JGU       0.079300
     24 CAC        -32.1210   -13.2150     2.0450 c          1 JGU       0.597600
     25 OAL        -31.4000   -12.2260     2.0620 o          1 JGU      -0.545000
     26 CAB        -33.1680   -13.4130     1.0340 cd         1 JGU      -0.261600
     27 CAI        -33.5730   -12.6140    -0.0620 cd         1 JGU      -0.097000
     28 CAA        -33.9620   -14.5130     1.0350 cc         1 JGU       0.299800
     29 OAG        -34.8290   -14.5010    -0.0300 os         1 JGU      -0.222000
     30 CAH        -34.5860   -13.3100    -0.6730 cc         1 JGU       0.175500
     31 CAM        -35.3550   -12.8850    -1.8500 ca         1 JGU      -0.115500
     32 CAW        -35.0150   -11.7250    -2.5780 ca         1 JGU      -0.092500
     33 CAV        -35.7690   -11.3300    -3.7000 ca         1 JGU      -0.085300
     34 CBF        -35.3790   -10.0710    -4.4690 c3         1 JGU      -0.042300
     35 CAS        -36.4680   -13.6460    -2.2640 ca         1 JGU      -0.092500
     36 CAT        -37.2350   -13.2660    -3.3800 ca         1 JGU      -0.085300
     37 CBD        -38.4430   -14.1090    -3.7780 c3         1 JGU      -0.042300
     38 CAU        -36.8740   -12.1080    -4.1040 ca         1 JGU       0.103100
     39 OBE        -37.6050   -11.7240    -5.2050 os         1 JGU      -0.358100
     40 CBG        -37.3200   -12.3320    -6.4800 c3         1 JGU       0.163600
     41 CBH        -38.2690   -11.7340    -7.5500 c3         1 JGU       0.161600
     42 OBI        -39.6360   -12.1260    -7.3220 oh         1 JGU      -0.651000
     43 H1         -39.8870   -14.9680     4.8800 ha         1 JGU       0.152000
     44 H2         -40.9580   -14.0490     0.8040 ha         1 JGU       0.144000
     45 H3         -38.6570   -14.6770     0.0520 ha         1 JGU       0.142000
     46 H4         -37.9380   -17.8550     1.8490 ha         1 JGU       0.126000
     47 H5         -36.9230   -19.9670     2.5290 ha         1 JGU       0.114000
     48 H6         -32.7340   -21.8770     2.3390 hc         1 JGU       0.044700
     49 H7         -33.8110   -21.1660     1.1200 hc         1 JGU       0.044700
     50 H8         -32.4870   -20.2050     1.8050 hc         1 JGU       0.044700
     51 H9         -35.8730   -21.2720     4.3290 hc         1 JGU       0.044700
     52 H10        -35.7540   -21.9470     2.6860 hc         1 JGU       0.044700
     53 H11        -34.6230   -22.4690     3.9400 hc         1 JGU       0.044700
     54 H12        -33.9990   -19.7250     4.9370 ho         1 JGU       0.441000
     55 H13        -33.0560   -18.0410     2.7370 ha         1 JGU       0.127000
     56 H14        -32.6840   -16.0760     3.7930 h4         1 JGU       0.204000
     57 H15        -30.9740   -15.0250     4.6950 h1         1 JGU       0.054033
     58 H16        -30.0000   -14.0140     3.5960 h1         1 JGU       0.054033
     59 H17        -31.2090   -13.2560     4.6730 h1         1 JGU       0.054033
     60 H18        -33.1630   -11.6530    -0.3500 ha         1 JGU       0.155000
     61 H19        -34.1610   -11.1220    -2.2810 ha         1 JGU       0.120500
     62 H20        -36.2420    -9.4080    -4.6040 hc         1 JGU       0.046200
     63 H21        -34.6050    -9.4970    -3.9470 hc         1 JGU       0.046200
     64 H22        -34.9910   -10.3230    -5.4620 hc         1 JGU       0.046200
     65 H23        -36.7450   -14.5420    -1.7120 ha         1 JGU       0.120500
     66 H24        -38.1850   -14.8080    -4.5820 hc         1 JGU       0.046200
     67 H25        -38.8180   -14.6990    -2.9340 hc         1 JGU       0.046200
     68 H26        -39.2740   -13.4840    -4.1280 hc         1 JGU       0.046200
     69 H27        -37.4530   -13.4200    -6.4370 h1         1 JGU       0.037200
     70 H28        -36.2820   -12.1300    -6.7710 h1         1 JGU       0.037200
     71 H29        -37.9410   -12.0820    -8.5380 h1         1 JGU       0.027200
     72 H30        -38.1750   -10.6400    -7.5380 h1         1 JGU       0.027200
     73 H31        -40.1800   -11.6740    -8.0050 ho         1 JGU       0.443000
@<TRIPOS>BOND
     1     1     2 1   
     2     2     3 ar  
     3     2     8 ar  
     4     3     4 ar  
     5     3    43 1   
     6     4     5 1   
     7     4     6 ar  
     8     6     7 ar  
     9     6    44 1   
    10     7     8 ar  
    11     7    45 1   
    12     8     9 1   
    13     9    10 1   
    14    10    11 ar  
    15    10    19 ar  
    16    11    12 ar  
    17    11    46 1   
    18    12    13 ar  
    19    12    47 1   
    20    13    14 1   
    21    13    18 ar  
    22    14    15 1   
    23    14    16 1   
    24    14    17 1   
    25    15    48 1   
    26    15    49 1   
    27    15    50 1   
    28    16    51 1   
    29    16    52 1   
    30    16    53 1   
    31    17    54 1   
    32    18    19 ar  
    33    18    55 1   
    34    19    20 1   
    35    20    21 2   
    36    20    28 1   
    37    21    22 1   
    38    21    56 1   
    39    22    23 1   
    40    22    24 1   
    41    23    57 1   
    42    23    58 1   
    43    23    59 1   
    44    24    25 2   
    45    24    26 1   
    46    26    27 1   
    47    26    28 2   
    48    27    30 2   
    49    27    60 1   
    50    28    29 1   
    51    29    30 1   
    52    30    31 1   
    53    31    32 ar  
    54    31    35 ar  
    55    32    33 ar  
    56    32    61 1   
    57    33    34 1   
    58    33    38 ar  
    59    34    62 1   
    60    34    63 1   
    61    34    64 1   
    62    35    36 ar  
    63    35    65 1   
    64    36    37 1   
    65    36    38 ar  
    66    37    66 1   
    67    37    67 1   
    68    37    68 1   
    69    38    39 1   
    70    39    40 1   
    71    40    41 1   
    72    40    69 1   
    73    40    70 1   
    74    41    42 1   
    75    41    71 1   
    76    41    72 1   
    77    42    73 1   
@<TRIPOS>SUBSTRUCTURE
     1 JGU         1 TEMP              0 ****  ****    0 ROOT
