@<TRIPOS>MOLECULE
JGU
   73    77     1     0     0
SMALL
abcg2


@<TRIPOS>ATOM
      1 FBP        -38.2290   -15.1290     4.6910 f          1 JGU      -0.157000
      2 CBJ        -38.7640   -14.8920     3.4920 ca         1 JGU       0.193000
      3 CBK        -40.1160   -14.6360     3.3920 ca         1 JGU      -0.197000
      4 CBL        -40.6340   -14.4090     2.1310 ca         1 JGU       0.201000
      5 FBO        -41.9450   -14.1660     2.0140 f          1 JGU      -0.168000
      6 CBM        -39.8510   -14.4270     0.9940 ca         1 JGU      -0.161000
      7 CBN        -38.4950   -14.6850     1.1280 ca         1 JGU      -0.062000
      8 CBC        -37.9390   -14.9170     2.3760 ca         1 JGU       0.035100
      9 OBB        -36.5990   -15.1230     2.5240 os         1 JGU      -0.223200
     10 CAR        -36.1060   -16.3920     2.4400 ca         1 JGU       0.153100
     11 CAQ        -36.9030   -17.5280     2.4490 ca         1 JGU      -0.179000
     12 CAP        -36.3140   -18.7830     2.4220 ca         1 JGU      -0.064000
     13 CAO        -34.9310   -18.9390     2.3850 ca         1 JGU      -0.141300
     14 CAX        -34.2900   -20.3250     2.3410 c3         1 JGU       0.236300
     15 CAY        -34.5590   -20.9610     0.9790 c3         1 JGU      -0.099100
     16 CAZ        -34.8430   -21.2140     3.4580 c3         1 JGU      -0.099100
     17 OBA        -32.8840   -20.2330     2.4580 oh         1 JGU      -0.656000
     18 CAN        -34.1570   -17.7860     2.3430 ca         1 JGU      -0.064000
     19 CAJ        -34.7190   -16.5120     2.3680 ca         1 JGU      -0.053800
     20 CAF        -33.8440   -15.3280     2.3260 cc         1 JGU      -0.210000
     21 CAE        -32.8180   -15.1640     3.2080 cd         1 JGU      -0.011400
     22 NAD        -31.9310   -14.1310     3.1660 n          1 JGU      -0.284000
     23 CAK        -30.8670   -14.0670     4.1600 c3         1 JGU       0.079300
     24 CAC        -31.9620   -13.1170     2.2120 c          1 JGU       0.597600
     25 OAL        -31.1270   -12.2220     2.2150 o          1 JGU      -0.545000
     26 CAB        -33.0340   -13.2620     1.2720 cd         1 JGU      -0.261600
     27 CAI        -33.4160   -12.5070     0.1240 cd         1 JGU      -0.097000
     28 CAA        -33.9090   -14.3190     1.3430 cc         1 JGU       0.299800
     29 OAG        -34.7800   -14.2620     0.3330 os         1 JGU      -0.222000
     30 CAH        -34.4820   -13.1550    -0.4130 cc         1 JGU       0.175500
     31 CAM        -35.3080   -12.9030    -1.5810 ca         1 JGU      -0.115500
     32 CAW        -35.1690   -11.7070    -2.2840 ca         1 JGU      -0.092500
     33 CAV        -35.9300   -11.4370    -3.4120 ca         1 JGU      -0.085300
     34 CBF        -35.7810   -10.1360    -4.1460 c3         1 JGU      -0.042300
     35 CAS        -36.2500   -13.8330    -2.0210 ca         1 JGU      -0.092500
     36 CAT        -37.0400   -13.5890    -3.1370 ca         1 JGU      -0.085300
     37 CBD        -38.0800   -14.5820    -3.5670 c3         1 JGU      -0.042300
     38 CAU        -36.8640   -12.3900    -3.8300 ca         1 JGU       0.103100
     39 OBE        -37.6470   -12.1260    -4.9130 os         1 JGU      -0.358100
     40 CBG        -37.1230   -12.5750    -6.1590 c3         1 JGU       0.163600
     41 CBH        -38.1510   -12.3500    -7.2360 c3         1 JGU       0.161600
     42 OBI        -39.2720   -13.1670    -6.9950 oh         1 JGU      -0.651000
     43 H1         -40.7450   -14.6200     4.2730 ha         1 JGU       0.152000
     44 H2         -40.2840   -14.2430     0.0200 ha         1 JGU       0.144000
     45 H3         -37.8590   -14.7000     0.2530 ha         1 JGU       0.142000
     46 H4         -37.9820   -17.4540     2.4850 ha         1 JGU       0.126000
     47 H5         -36.9630   -19.6500     2.4290 ha         1 JGU       0.114000
     48 H6         -34.1160   -21.9570     0.9260 hc         1 JGU       0.044700
     49 H7         -35.6300   -21.0590     0.8060 hc         1 JGU       0.044700
     50 H8         -34.1420   -20.3530     0.1740 hc         1 JGU       0.044700
     51 H9         -34.6490   -20.7780     4.4400 hc         1 JGU       0.044700
     52 H10        -35.9180   -21.3620     3.3680 hc         1 JGU       0.044700
     53 H11        -34.3690   -22.1960     3.4190 hc         1 JGU       0.044700
     54 H12        -32.6660   -19.9660     3.3580 ho         1 JGU       0.441000
     55 H13        -33.0810   -17.8620     2.2680 ha         1 JGU       0.127000
     56 H14        -32.6640   -15.8760     4.0070 h4         1 JGU       0.204000
     57 H15        -30.9600   -14.9170     4.8290 h1         1 JGU       0.054033
     58 H16        -29.8910   -14.1030     3.6800 h1         1 JGU       0.054033
     59 H17        -30.9390   -13.1520     4.7430 h1         1 JGU       0.054033
     60 H18        -32.9460   -11.6120    -0.2510 ha         1 JGU       0.155000
     61 H19        -34.4580   -10.9610    -1.9490 ha         1 JGU       0.120500
     62 H20        -36.7320    -9.6110    -4.2300 hc         1 JGU       0.046200
     63 H21        -35.0820    -9.4810    -3.6280 hc         1 JGU       0.046200
     64 H22        -35.4030   -10.2800    -5.1590 hc         1 JGU       0.046200
     65 H23        -36.3730   -14.7750    -1.5030 ha         1 JGU       0.120500
     66 H24        -37.8690   -14.9990    -4.5530 hc         1 JGU       0.046200
     67 H25        -38.1320   -15.4120    -2.8650 hc         1 JGU       0.046200
     68 H26        -39.0700   -14.1260    -3.6190 hc         1 JGU       0.046200
     69 H27        -36.8550   -13.6360    -6.1060 h1         1 JGU       0.037200
     70 H28        -36.2150   -12.0210    -6.4200 h1         1 JGU       0.037200
     71 H29        -37.6690   -12.5830    -8.1940 h1         1 JGU       0.027200
     72 H30        -38.4170   -11.2860    -7.2660 h1         1 JGU       0.027200
     73 H31        -39.9200   -12.9980    -7.6840 ho         1 JGU       0.443000
@<TRIPOS>BOND
     1     1     2 1   
     2     2     3 ar  
     3     2     8 ar  
     4     3     4 ar  
     5     3    43 1   
     6     4     5 1   
     7     4     6 ar  
     8     6     7 ar  
     9     6    44 1   
    10     7     8 ar  
    11     7    45 1   
    12     8     9 1   
    13     9    10 1   
    14    10    11 ar  
    15    10    19 ar  
    16    11    12 ar  
    17    11    46 1   
    18    12    13 ar  
    19    12    47 1   
    20    13    14 1   
    21    13    18 ar  
    22    14    15 1   
    23    14    16 1   
    24    14    17 1   
    25    15    48 1   
    26    15    49 1   
    27    15    50 1   
    28    16    51 1   
    29    16    52 1   
    30    16    53 1   
    31    17    54 1   
    32    18    19 ar  
    33    18    55 1   
    34    19    20 1   
    35    20    21 2   
    36    20    28 1   
    37    21    22 1   
    38    21    56 1   
    39    22    23 1   
    40    22    24 1   
    41    23    57 1   
    42    23    58 1   
    43    23    59 1   
    44    24    25 2   
    45    24    26 1   
    46    26    27 1   
    47    26    28 2   
    48    27    30 2   
    49    27    60 1   
    50    28    29 1   
    51    29    30 1   
    52    30    31 1   
    53    31    32 ar  
    54    31    35 ar  
    55    32    33 ar  
    56    32    61 1   
    57    33    34 1   
    58    33    38 ar  
    59    34    62 1   
    60    34    63 1   
    61    34    64 1   
    62    35    36 ar  
    63    35    65 1   
    64    36    37 1   
    65    36    38 ar  
    66    37    66 1   
    67    37    67 1   
    68    37    68 1   
    69    38    39 1   
    70    39    40 1   
    71    40    41 1   
    72    40    69 1   
    73    40    70 1   
    74    41    42 1   
    75    41    71 1   
    76    41    72 1   
    77    42    73 1   
@<TRIPOS>SUBSTRUCTURE
     1 JGU         1 TEMP              0 ****  ****    0 ROOT
