@<TRIPOS>MOLECULE
JGW
   48    51     1     0     0
SMALL
abcg2


@<TRIPOS>ATOM
      1 C9         -67.2400   -64.3450    30.2650 ca         1 JGW      -0.062300
      2 C7         -69.5170   -63.9150    31.3000 c2         1 JGW       0.470300
      3 C6         -67.6170   -62.2520    31.6010 c          1 JGW       0.592700
      4 C4         -69.9640   -61.8570    32.2600 ca         1 JGW       0.164400
      5 C2         -70.6090   -59.8050    33.3480 ca         1 JGW      -0.082000
      6 C1         -69.2920   -59.3510    33.3030 ca         1 JGW      -0.124000
      7 C12        -65.8120   -65.5770    28.1810 ca         1 JGW      -0.076300
      8 C15        -65.0400   -66.2300    27.0590 c3         1 JGW       0.011200
      9 C16        -64.9690   -67.7280    27.1930 ca         1 JGW      -0.066300
     10 C19        -64.8670   -70.4850    27.5030 ca         1 JGW       0.087100
     11 C20        -63.6970   -69.7520    27.5690 ca         1 JGW      -0.098000
     12 C21        -63.7580   -68.3740    27.4120 ca         1 JGW      -0.099000
     13 F2         -64.0420   -71.9450    29.7050 f          1 JGW      -0.110000
     14 F          -64.7670   -73.7160    28.7120 f          1 JGW      -0.110000
     15 F1         -66.1420   -72.1910    29.3620 f          1 JGW      -0.110000
     16 O1         -64.8050   -71.8710    27.6120 os         1 JGW      -0.402100
     17 C18        -66.0880   -69.8730    27.2700 ca         1 JGW      -0.098000
     18 C17        -66.1290   -68.4970    27.1170 ca         1 JGW      -0.099000
     19 C11        -65.6170   -65.9610    29.5050 ca         1 JGW      -0.103000
     20 C10        -66.3220   -65.3520    30.5320 ca         1 JGW      -0.092500
     21 C13        -66.7280   -64.5620    27.9180 ca         1 JGW      -0.103000
     22 C14        -67.4300   -63.9500    28.9450 ca         1 JGW      -0.092500
     23 C8         -68.0220   -63.6960    31.3750 c6         1 JGW      -0.221700
     24 C5         -68.6390   -61.4010    32.2200 ca         1 JGW      -0.206600
     25 C          -68.3160   -60.1440    32.7310 ca         1 JGW      -0.046000
     26 C23        -69.9900   -65.2240    30.7610 c3         1 JGW      -0.140400
     27 N          -70.3760   -63.0820    31.7370 ne         1 JGW      -0.583100
     28 C3         -70.9440   -61.0410    32.8250 ca         1 JGW      -0.092000
     29 H1         -71.3770   -59.1850    33.7910 ha         1 JGW       0.118000
     30 H2         -69.0360   -58.3840    33.7140 ha         1 JGW       0.120000
     31 H3         -64.0260   -65.8220    27.0300 hc         1 JGW       0.060700
     32 H4         -65.5020   -65.9660    26.1050 hc         1 JGW       0.060700
     33 H5         -62.7460   -70.2450    27.7280 ha         1 JGW       0.135000
     34 H6         -62.8430   -67.7960    27.4670 ha         1 JGW       0.123000
     35 H7         -66.9940   -70.4610    27.1960 ha         1 JGW       0.135000
     36 H8         -67.0820   -68.0140    26.9400 ha         1 JGW       0.123000
     37 H9         -64.9130   -66.7490    29.7420 ha         1 JGW       0.116000
     38 H10        -66.1590   -65.6730    31.5550 ha         1 JGW       0.115500
     39 H11        -66.9000   -64.2490    26.8950 ha         1 JGW       0.116000
     40 H12        -68.1440   -63.1680    28.7100 ha         1 JGW       0.115500
     41 H13        -67.7410   -64.1900    32.3230 hc         1 JGW       0.095700
     42 H14        -67.2900   -59.8000    32.6880 ha         1 JGW       0.133000
     43 H15        -71.0550   -65.3460    30.9430 hc         1 JGW       0.060367
     44 H16        -69.8070   -65.2940    29.6870 hc         1 JGW       0.060367
     45 H17        -69.4470   -66.0510    31.2220 hc         1 JGW       0.060367
     46 H18        -71.9680   -61.3920    32.8450 ha         1 JGW       0.133000
     47 O          -66.5060   -61.8570    31.3260 o          1 JGW      -0.503100
     48 C22        -64.9370   -72.4080    28.8290 c3         1 JGW       0.514000
@<TRIPOS>BOND
     1     1    20 ar  
     2     1    22 ar  
     3     1    23 1   
     4     2    23 1   
     5     2    26 1   
     6     2    27 2   
     7     3    23 1   
     8     3    24 1   
     9     3    47 2   
    10     4    24 ar  
    11     4    27 1   
    12     4    28 ar  
    13     5     6 ar  
    14     5    28 ar  
    15     5    29 1   
    16     6    25 ar  
    17     6    30 1   
    18     7     8 1   
    19     7    19 ar  
    20     7    21 ar  
    21     8     9 1   
    22     8    31 1   
    23     8    32 1   
    24     9    12 ar  
    25     9    18 ar  
    26    10    11 ar  
    27    10    16 1   
    28    10    17 ar  
    29    11    12 ar  
    30    11    33 1   
    31    12    34 1   
    32    13    48 1   
    33    14    48 1   
    34    15    48 1   
    35    16    48 1   
    36    17    18 ar  
    37    17    35 1   
    38    18    36 1   
    39    19    20 ar  
    40    19    37 1   
    41    20    38 1   
    42    21    22 ar  
    43    21    39 1   
    44    22    40 1   
    45    23    41 1   
    46    24    25 ar  
    47    25    42 1   
    48    26    43 1   
    49    26    44 1   
    50    26    45 1   
    51    28    46 1   
@<TRIPOS>SUBSTRUCTURE
     1 JGW         1 TEMP              0 ****  ****    0 ROOT
