@<TRIPOS>MOLECULE
JGW
   48    51     1     0     0
SMALL
No Charge or Current Charge


@<TRIPOS>ATOM
      1 C9         -66.9470   -64.0600    30.1830 ca         1 JGW      -0.062300
      2 C7         -68.9730   -63.9920    31.8130 c2         1 JGW       0.470300
      3 C6         -68.2010   -61.9010    30.7890 c          1 JGW       0.592700
      4 C4         -69.8480   -61.9460    32.6400 ca         1 JGW       0.164400
      5 C2         -70.6740   -59.9060    33.6850 ca         1 JGW      -0.082000
      6 C1         -69.8640   -59.1370    32.8300 ca         1 JGW      -0.124000
      7 C12        -65.4590   -65.5030    28.2570 ca         1 JGW      -0.076300
      8 C15        -64.6600   -66.2900    27.2270 c3         1 JGW       0.011200
      9 C16        -64.7900   -67.7900    27.4520 ca         1 JGW      -0.066300
     10 C19        -65.0420   -70.5760    27.8870 ca         1 JGW       0.087100
     11 C20        -63.9970   -69.8520    28.4860 ca         1 JGW      -0.098000
     12 C21        -63.8700   -68.4690    28.2730 ca         1 JGW      -0.099000
     13 F2         -67.3570   -72.4610    28.0040 f          1 JGW      -0.110000
     14 F          -65.9110   -74.0820    28.0370 f          1 JGW      -0.110000
     15 F1         -66.0940   -72.8490    26.2580 f          1 JGW      -0.110000
     16 O1         -65.1020   -71.9340    28.1460 os         1 JGW      -0.402100
     17 C18        -65.9690   -69.8960    27.0640 ca         1 JGW      -0.098000
     18 C17        -65.8400   -68.5110    26.8520 ca         1 JGW      -0.099000
     19 C11        -64.8690   -65.1310    29.4800 ca         1 JGW      -0.103000
     20 C10        -65.6080   -64.4140    30.4360 ca         1 JGW      -0.092500
     21 C13        -66.7980   -65.1520    28.0030 ca         1 JGW      -0.103000
     22 C14        -67.5370   -64.4350    28.9590 ca         1 JGW      -0.092500
     23 C8         -67.7530   -63.2910    31.2460 c6         1 JGW      -0.221700
     24 C5         -69.0300   -61.1760    31.7950 ca         1 JGW      -0.206600
     25 C          -69.0450   -59.7690    31.8780 ca         1 JGW      -0.046000
     26 C23        -69.0080   -65.5050    31.7780 c3         1 JGW      -0.140400
     27 N          -69.8720   -63.3500    32.5070 ne         1 JGW      -0.583100
     28 C3         -70.6700   -61.3090    33.5840 ca         1 JGW      -0.092000
     29 H1         -71.3110   -59.4150    34.4190 ha         1 JGW       0.118000
     30 H2         -69.8740   -58.0520    32.9030 ha         1 JGW       0.120000
     31 H3         -63.6050   -65.9940    27.2640 hc         1 JGW       0.060700
     32 H4         -64.9960   -66.0320    26.2140 hc         1 JGW       0.060700
     33 H5         -63.2820   -70.3680    29.1220 ha         1 JGW       0.135000
     34 H6         -63.0560   -67.9250    28.7480 ha         1 JGW       0.123000
     35 H7         -66.7920   -70.4140    26.5830 ha         1 JGW       0.135000
     36 H8         -66.5610   -67.9970    26.2200 ha         1 JGW       0.123000
     37 H9         -63.8370   -65.4000    29.6920 ha         1 JGW       0.116000
     38 H10        -65.1370   -64.1380    31.3770 ha         1 JGW       0.115500
     39 H11        -67.2680   -65.4370    27.0650 ha         1 JGW       0.116000
     40 H12        -68.5710   -64.1730    28.7470 ha         1 JGW       0.115500
     41 H13        -67.1500   -63.1150    32.1460 hc         1 JGW       0.095700
     42 H14        -68.4240   -59.1710    31.2130 ha         1 JGW       0.133000
     43 H15        -69.8440   -65.9020    32.3660 hc         1 JGW       0.060367
     44 H16        -69.1240   -65.8750    30.7540 hc         1 JGW       0.060367
     45 H17        -68.0840   -65.9260    32.1890 hc         1 JGW       0.060367
     46 H18        -71.3070   -61.9020    34.2350 ha         1 JGW       0.133000
     47 O          -68.0880   -61.4910    29.6400 o          1 JGW      -0.503100
     48 C22        -66.1110   -72.8160    27.6110 c3         1 JGW       0.514000
@<TRIPOS>BOND
     1     1    20 ar  
     2     1    22 ar  
     3     1    23 1   
     4     2    23 1   
     5     2    26 1   
     6     2    27 2   
     7     3    23 1   
     8     3    24 1   
     9     3    47 2   
    10     4    24 ar  
    11     4    27 1   
    12     4    28 ar  
    13     5     6 ar  
    14     5    28 ar  
    15     5    29 1   
    16     6    25 ar  
    17     6    30 1   
    18     7     8 1   
    19     7    19 ar  
    20     7    21 ar  
    21     8     9 1   
    22     8    31 1   
    23     8    32 1   
    24     9    12 ar  
    25     9    18 ar  
    26    10    11 ar  
    27    10    16 1   
    28    10    17 ar  
    29    11    12 ar  
    30    11    33 1   
    31    12    34 1   
    32    13    48 1   
    33    14    48 1   
    34    15    48 1   
    35    16    48 1   
    36    17    18 ar  
    37    17    35 1   
    38    18    36 1   
    39    19    20 ar  
    40    19    37 1   
    41    20    38 1   
    42    21    22 ar  
    43    21    39 1   
    44    22    40 1   
    45    23    41 1   
    46    24    25 ar  
    47    25    42 1   
    48    26    43 1   
    49    26    44 1   
    50    26    45 1   
    51    28    46 1   
@<TRIPOS>SUBSTRUCTURE
     1 JGW         1 TEMP              0 ****  ****    0 ROOT
