@<TRIPOS>MOLECULE
JGX
   56    57     1     0     0
SMALL
No Charge or Current Charge


@<TRIPOS>ATOM
      1 C1         104.3480   120.1060   129.0660 c3         1 JGX      -0.093100
      2 C2         105.5560   119.9970   128.1220 c3         1 JGX       0.162600
      3 C4         106.7170   118.1630   126.9330 ca         1 JGX       0.120100
      4 C5         107.6550   119.0510   126.3570 ca         1 JGX      -0.174000
      5 C6         108.6610   118.5610   125.5060 ca         1 JGX      -0.109000
      6 C7         108.7400   117.1890   125.2240 ca         1 JGX      -0.112000
      7 C8         107.8140   116.2970   125.7910 ca         1 JGX      -0.176000
      8 C9         106.7960   116.7770   126.6490 ca         1 JGX       0.111100
      9 C11        105.8650   114.5050   126.9840 c3         1 JGX       0.156600
     10 C12        104.6920   113.8600   127.7690 c3         1 JGX       0.161800
     11 C14        103.8480   113.2870   130.0760 c3         1 JGX       0.176500
     12 C15        104.3760   113.1760   131.5300 c3         1 JGX      -0.028100
     13 C16        103.4420   112.3980   132.4550 ca         1 JGX      -0.132300
     14 C17        103.2900   111.0100   132.2980 ca         1 JGX      -0.021000
     15 C18        102.4300   110.2920   133.1430 ca         1 JGX      -0.213000
     16 C19        101.7060   110.9540   134.1580 ca         1 JGX       0.231100
     17 C20        101.8540   112.3450   134.3150 ca         1 JGX      -0.294500
     18 C21        102.7240   113.0630   133.4670 ca         1 JGX       0.028000
     19 C27        100.6340   108.8530   134.9010 c3         1 JGX       0.155900
     20 C28        102.5080   114.0560   129.9980 c3         1 JGX      -0.089100
     21 N13        104.8760   113.9470   129.2440 n7         1 JGX      -0.845400
     22 N25        101.3430   112.4440   136.9450 n8         1 JGX      -1.011100
     23 O3         105.7110   118.6110   127.7750 os         1 JGX      -0.324100
     24 O10        105.8670   115.9260   127.2240 os         1 JGX      -0.310100
     25 O23         99.5080   112.9510   135.4360 o          1 JGX      -0.549000
     26 O24        101.4570   114.5880   135.7220 o          1 JGX      -0.549000
     27 O26        100.8770   110.2660   135.0230 os         1 JGX      -0.355100
     28 S22        100.9350   113.2300   135.5720 sy         1 JGX       1.149600
     29 H1         104.1890   121.1500   129.3600 hc         1 JGX       0.047367
     30 H2         103.4380   119.7460   128.5720 hc         1 JGX       0.047367
     31 H3         104.5120   119.5140   129.9740 hc         1 JGX       0.047367
     32 H4         106.4520   120.3740   128.6320 h1         1 JGX       0.029200
     33 H5         105.3750   120.6050   127.2260 h1         1 JGX       0.029200
     34 H6         107.6200   120.1180   126.5550 ha         1 JGX       0.117000
     35 H7         109.3810   119.2470   125.0650 ha         1 JGX       0.112000
     36 H8         109.5210   116.8160   124.5650 ha         1 JGX       0.112000
     37 H9         107.9020   115.2410   125.5530 ha         1 JGX       0.113000
     38 H10        105.7270   114.3010   125.9140 h1         1 JGX       0.030700
     39 H11        106.8120   114.0520   127.3040 h1         1 JGX       0.030700
     40 H12        103.7610   114.3520   127.4580 h1         1 JGX       0.042700
     41 H13        104.6200   112.8070   127.4630 h1         1 JGX       0.042700
     42 H14        103.6830   112.2660   129.7040 h1         1 JGX       0.011700
     43 H15        105.3550   112.6800   131.5160 hc         1 JGX       0.057200
     44 H16        104.5560   114.1840   131.9230 hc         1 JGX       0.057200
     45 H17        103.8420   110.4850   131.5210 ha         1 JGX       0.112000
     46 H18        102.3440   109.2200   132.9970 ha         1 JGX       0.120000
     47 H19        102.8390   114.1400   133.5820 ha         1 JGX       0.146000
     48 H20         99.9330   108.5190   135.6770 h1         1 JGX       0.048367
     49 H21        100.1960   108.6150   133.9240 h1         1 JGX       0.048367
     50 H22        101.5650   108.2840   135.0200 h1         1 JGX       0.048367
     51 H23        101.7500   113.5820   130.6320 hc         1 JGX       0.041367
     52 H24        102.6330   115.0930   130.3310 hc         1 JGX       0.041367
     53 H25        102.1130   114.0650   128.9760 hc         1 JGX       0.041367
     54 H26        105.7800   113.5150   129.4650 hn         1 JGX       0.404000
     55 H28        100.4660   112.4940   137.4570 hn         1 JGX       0.477500
     56 H29        101.3610   111.4830   136.6070 hn         1 JGX       0.477500
@<TRIPOS>BOND
     1     1     2 1   
     2     1    29 1   
     3     1    30 1   
     4     1    31 1   
     5     2    23 1   
     6     2    32 1   
     7     2    33 1   
     8     3     4 ar  
     9     3     8 ar  
    10     3    23 1   
    11     4     5 ar  
    12     4    34 1   
    13     5     6 ar  
    14     5    35 1   
    15     6     7 ar  
    16     6    36 1   
    17     7     8 ar  
    18     7    37 1   
    19     8    24 1   
    20     9    10 1   
    21     9    24 1   
    22     9    38 1   
    23     9    39 1   
    24    10    21 1   
    25    10    40 1   
    26    10    41 1   
    27    11    12 1   
    28    11    20 1   
    29    11    21 1   
    30    11    42 1   
    31    12    13 1   
    32    12    43 1   
    33    12    44 1   
    34    13    14 ar  
    35    13    18 ar  
    36    14    15 ar  
    37    14    45 1   
    38    15    16 ar  
    39    15    46 1   
    40    16    17 ar  
    41    16    27 1   
    42    17    18 ar  
    43    17    28 1   
    44    18    47 1   
    45    19    27 1   
    46    19    48 1   
    47    19    49 1   
    48    19    50 1   
    49    20    51 1   
    50    20    52 1   
    51    20    53 1   
    52    21    54 1   
    53    22    28 1   
    54    22    55 1   
    55    22    56 1   
    56    25    28 2   
    57    26    28 2   
@<TRIPOS>SUBSTRUCTURE
     1 JGX         1 TEMP              0 ****  ****    0 ROOT
