@<TRIPOS>MOLECULE
JGX
   56    57     1     0     0
SMALL
bcc


@<TRIPOS>ATOM
      1 C1         104.9820   120.3850   128.9910 c3         1 JGX      -0.093100
      2 C2         106.1300   119.9810   128.0970 c3         1 JGX       0.139400
      3 C4         106.9050   118.0280   126.9880 ca         1 JGX       0.120100
      4 C5         107.9800   118.6860   126.4100 ca         1 JGX      -0.192000
      5 C6         108.8580   118.0050   125.5670 ca         1 JGX      -0.127000
      6 C7         108.6600   116.6670   125.2990 ca         1 JGX      -0.130000
      7 C8         107.5840   115.9930   125.8770 ca         1 JGX      -0.194000
      8 C9         106.7060   116.6560   126.7190 ca         1 JGX       0.111100
      9 C11        105.3960   114.7170   127.1030 c3         1 JGX       0.133400
     10 C12        104.1850   114.2930   127.9010 c3         1 JGX       0.161800
     11 C14        103.4650   113.6660   130.1430 c3         1 JGX       0.176500
     12 C15        103.9250   113.7350   131.6060 c3         1 JGX      -0.028100
     13 C16        103.2570   112.7100   132.4760 ca         1 JGX      -0.132300
     14 C17        103.6610   111.3790   132.4330 ca         1 JGX      -0.039000
     15 C18        103.0670   110.4000   133.2140 ca         1 JGX      -0.231000
     16 C19        102.0290   110.7360   134.0780 ca         1 JGX       0.231100
     17 C20        101.6110   112.0710   134.1220 ca         1 JGX      -0.294500
     18 C21        102.2180   113.0400   133.3380 ca         1 JGX       0.010000
     19 C27        101.7960   108.5160   134.8880 c3         1 JGX       0.132700
     20 C28        102.0440   114.1890   129.9930 c3         1 JGX      -0.089100
     21 N13        104.3970   114.4360   129.3300 n7         1 JGX      -0.790200
     22 N25        100.8120   112.2310   136.6770 n8         1 JGX      -0.900700
     23 O3         106.0030   118.5960   127.8110 os         1 JGX      -0.300900
     24 O10        105.6450   116.0920   127.3270 os         1 JGX      -0.286900
     25 O23         99.1110   111.6970   134.8110 o          1 JGX      -0.619800
     26 O24        100.0910   113.9810   135.0690 o          1 JGX      -0.619800
     27 O26        101.4080   109.8790   134.8950 os         1 JGX      -0.331900
     28 S22        100.2480   112.5370   135.1530 sy         1 JGX       1.291200
     29 H1         105.0650   121.4460   129.2260 hc         1 JGX       0.047367
     30 H2         104.0210   120.2250   128.5030 hc         1 JGX       0.047367
     31 H3         104.9930   119.8320   129.9300 hc         1 JGX       0.047367
     32 H4         107.0870   120.1780   128.5920 h1         1 JGX       0.029200
     33 H5         106.1130   120.5640   127.1700 h1         1 JGX       0.029200
     34 H6         108.1520   119.7360   126.6050 ha         1 JGX       0.135000
     35 H7         109.6910   118.5380   125.1270 ha         1 JGX       0.130000
     36 H8         109.3340   116.1290   124.6450 ha         1 JGX       0.130000
     37 H9         107.4460   114.9430   125.6540 ha         1 JGX       0.131000
     38 H10        105.2110   114.5250   126.0400 h1         1 JGX       0.030700
     39 H11        106.2650   114.1160   127.3990 h1         1 JGX       0.030700
     40 H12        103.3200   114.8830   127.5870 h1         1 JGX       0.042700
     41 H13        103.9730   113.2520   127.6090 h1         1 JGX       0.042700
     42 H14        103.4690   112.6040   129.8380 h1         1 JGX       0.011700
     43 H15        105.0070   113.5730   131.6430 hc         1 JGX       0.057200
     44 H16        103.7460   114.7410   131.9940 hc         1 JGX       0.057200
     45 H17        104.4720   111.0910   131.7740 ha         1 JGX       0.130000
     46 H18        103.4290   109.3830   133.1460 ha         1 JGX       0.138000
     47 H19        101.8810   114.0670   133.3970 ha         1 JGX       0.164000
     48 H20        101.1600   108.0160   135.6130 h1         1 JGX       0.048367
     49 H21        101.6440   108.0600   133.9080 h1         1 JGX       0.048367
     50 H22        102.8400   108.3920   135.1850 h1         1 JGX       0.048367
     51 H23        101.3620   113.6530   130.6540 hc         1 JGX       0.041367
     52 H24        101.9980   115.2500   130.2440 hc         1 JGX       0.041367
     53 H25        101.6680   114.0640   128.9770 hc         1 JGX       0.041367
     54 H26        105.3330   114.1080   129.5420 hn         1 JGX       0.348800
     55 H28        100.4490   112.9020   137.3470 hn         1 JGX       0.422300
     56 H29        100.6470   111.2810   136.9890 hn         1 JGX       0.422300
@<TRIPOS>BOND
     1     1     2 1   
     2     1    29 1   
     3     1    30 1   
     4     1    31 1   
     5     2    23 1   
     6     2    32 1   
     7     2    33 1   
     8     3     4 ar  
     9     3     8 ar  
    10     3    23 1   
    11     4     5 ar  
    12     4    34 1   
    13     5     6 ar  
    14     5    35 1   
    15     6     7 ar  
    16     6    36 1   
    17     7     8 ar  
    18     7    37 1   
    19     8    24 1   
    20     9    10 1   
    21     9    24 1   
    22     9    38 1   
    23     9    39 1   
    24    10    21 1   
    25    10    40 1   
    26    10    41 1   
    27    11    12 1   
    28    11    20 1   
    29    11    21 1   
    30    11    42 1   
    31    12    13 1   
    32    12    43 1   
    33    12    44 1   
    34    13    14 ar  
    35    13    18 ar  
    36    14    15 ar  
    37    14    45 1   
    38    15    16 ar  
    39    15    46 1   
    40    16    17 ar  
    41    16    27 1   
    42    17    18 ar  
    43    17    28 1   
    44    18    47 1   
    45    19    27 1   
    46    19    48 1   
    47    19    49 1   
    48    19    50 1   
    49    20    51 1   
    50    20    52 1   
    51    20    53 1   
    52    21    54 1   
    53    22    28 1   
    54    22    55 1   
    55    22    56 1   
    56    25    28 2   
    57    26    28 2   
@<TRIPOS>SUBSTRUCTURE
     1 JGX         1 TEMP              0 ****  ****    0 ROOT
