@<TRIPOS>MOLECULE
JGY
   30    31     1     0     0
SMALL
abcg2


@<TRIPOS>ATOM
      1 C10         -1.6620     0.8220     0.7050 c3         1 JGY       0.097000
      2 C13         -4.7980    -0.5230    -0.6580 c5         1 JGY      -0.113400
      3 C01          4.1560    -2.0930     0.6300 c3         1 JGY       0.070900
      4 N02          3.5150    -0.9060     0.1120 na         1 JGY       0.146800
      5 C03          4.0630     0.0460    -0.6680 cc         1 JGY      -0.189000
      6 C04          3.0780     0.9690    -0.9230 cd         1 JGY      -0.165000
      7 C05          1.9590     0.4690    -0.2390 cd         1 JGY       0.192500
      8 N06          2.2460    -0.6680     0.3800 nc         1 JGY      -0.523800
      9 C07          0.6140     1.0810    -0.1740 c          1 JGY       0.534600
     10 O08          0.3800     2.1360    -0.7520 o          1 JGY      -0.611100
     11 N09         -0.2870     0.4090     0.5570 ns         1 JGY      -0.483900
     12 C11         -2.5730     0.3000    -0.3970 c5         1 JGY       0.135300
     13 C12         -4.0330     0.7100    -0.1910 c5         1 JGY      -0.106400
     14 C14         -3.8580    -1.6360    -0.2290 c5         1 JGY       0.153600
     15 O15         -2.5500    -1.1230    -0.4240 os         1 JGY      -0.463000
     16 H101        -2.0160     0.4660     1.6740 h1         1 JGY       0.057700
     17 H102        -1.7140     1.9110     0.7250 h1         1 JGY       0.057700
     18 H131        -5.7880    -0.6120    -0.2110 hc         1 JGY       0.056200
     19 H132        -4.9180    -0.5160    -1.7440 hc         1 JGY       0.056200
     20 H013         3.7090    -2.9860     0.1980 h1         1 JGY       0.058367
     21 H011         5.2100    -2.0640     0.3700 h1         1 JGY       0.058367
     22 H012         4.0580    -2.1280     1.7120 h1         1 JGY       0.058367
     23 H041         3.1550     1.8670    -1.5110 ha         1 JGY       0.162000
     24 H091        -0.0140    -0.4800     0.9440 hn         1 JGY       0.337500
     25 H111        -2.2050     0.6670    -1.3630 h1         1 JGY       0.073700
     26 H122        -4.2870     1.6150    -0.7420 hc         1 JGY       0.054200
     27 H121        -4.2330     0.9020     0.8670 hc         1 JGY       0.054200
     28 H142        -4.0230    -1.8940     0.8250 h1         1 JGY       0.042700
     29 H141        -3.9710    -2.5490    -0.8170 h1         1 JGY       0.042700
     30 H031         5.0950    -0.0010    -0.9770 h4         1 JGY       0.155000
@<TRIPOS>BOND
     1     1    11 1   
     2     1    12 1   
     3     1    16 1   
     4     1    17 1   
     5     2    13 1   
     6     2    14 1   
     7     2    18 1   
     8     2    19 1   
     9     3     4 1   
    10     3    20 1   
    11     3    21 1   
    12     3    22 1   
    13     4     5 1   
    14     4     8 1   
    15     5     6 2   
    16     5    30 1   
    17     6     7 1   
    18     6    23 1   
    19     7     8 2   
    20     7     9 1   
    21     9    10 2   
    22     9    11 1   
    23    11    24 1   
    24    12    13 1   
    25    12    15 1   
    26    12    25 1   
    27    13    26 1   
    28    13    27 1   
    29    14    15 1   
    30    14    28 1   
    31    14    29 1   
@<TRIPOS>SUBSTRUCTURE
     1 JGY         1 TEMP              0 ****  ****    0 ROOT
