@<TRIPOS>MOLECULE
JGY
   30    31     1     0     0
SMALL
No Charge or Current Charge


@<TRIPOS>ATOM
      1 C10         -1.7490     0.7060     0.7520 c3         1 JGY       0.097000
      2 C13         -4.8590    -0.5410    -0.5980 c5         1 JGY      -0.113400
      3 C01          4.2910    -2.1080     0.6730 c3         1 JGY       0.070900
      4 N02          3.5800    -0.9410     0.1330 na         1 JGY       0.146800
      5 C03          4.1130     0.0350    -0.7000 cc         1 JGY      -0.189000
      6 C04          3.0630     0.8810    -0.9130 cd         1 JGY      -0.165000
      7 C05          1.9460     0.3840    -0.2030 cd         1 JGY       0.192500
      8 N06          2.2500    -0.7380     0.4460 nc         1 JGY      -0.523800
      9 C07          0.5820     1.0270    -0.1740 c          1 JGY       0.534600
     10 O08          0.2890     2.0630    -0.7630 o          1 JGY      -0.611100
     11 N09         -0.3350     0.3400     0.5960 ns         1 JGY      -0.483900
     12 C11         -2.6210     0.4670    -0.5130 c5         1 JGY       0.135300
     13 C12         -4.1360     0.8060    -0.3030 c5         1 JGY      -0.106400
     14 C14         -3.7450    -1.5540    -0.2640 c5         1 JGY       0.153600
     15 O15         -2.6020    -0.9360    -0.8740 os         1 JGY      -0.463000
     16 H101        -2.1640     0.1320     1.5910 h1         1 JGY       0.057700
     17 H102        -1.8050     1.7690     1.0220 h1         1 JGY       0.057700
     18 H131        -5.7580    -0.6850     0.0110 hc         1 JGY       0.056200
     19 H132        -5.1540    -0.6180    -1.6510 hc         1 JGY       0.056200
     20 H013         3.7950    -3.0260     0.3380 h1         1 JGY       0.058367
     21 H011         5.3290    -2.1060     0.3200 h1         1 JGY       0.058367
     22 H012         4.2810    -2.0670     1.7690 h1         1 JGY       0.058367
     23 H041         3.0780     1.7810    -1.5200 ha         1 JGY       0.162000
     24 H091         0.0040    -0.5130     1.0280 hn         1 JGY       0.337500
     25 H111        -2.1990     1.0470    -1.3450 h1         1 JGY       0.073700
     26 H122        -4.4740     1.6060    -0.9700 hc         1 JGY       0.054200
     27 H121        -4.3330     1.1430     0.7220 hc         1 JGY       0.054200
     28 H142        -3.5800    -1.6530     0.8180 h1         1 JGY       0.042700
     29 H141        -3.9190    -2.5480    -0.6980 h1         1 JGY       0.042700
     30 H031         5.1390     0.0390    -1.0490 h4         1 JGY       0.155000
@<TRIPOS>BOND
     1     1    11 1   
     2     1    12 1   
     3     1    16 1   
     4     1    17 1   
     5     2    13 1   
     6     2    14 1   
     7     2    18 1   
     8     2    19 1   
     9     3     4 1   
    10     3    20 1   
    11     3    21 1   
    12     3    22 1   
    13     4     5 1   
    14     4     8 1   
    15     5     6 2   
    16     5    30 1   
    17     6     7 1   
    18     6    23 1   
    19     7     8 2   
    20     7     9 1   
    21     9    10 2   
    22     9    11 1   
    23    11    24 1   
    24    12    13 1   
    25    12    15 1   
    26    12    25 1   
    27    13    26 1   
    28    13    27 1   
    29    14    15 1   
    30    14    28 1   
    31    14    29 1   
@<TRIPOS>SUBSTRUCTURE
     1 JGY         1 TEMP              0 ****  ****    0 ROOT
