@<TRIPOS>MOLECULE
JGZ
   60    63     1     0     0
SMALL
bcc


@<TRIPOS>ATOM
      1 C1          -4.6190    -1.9950    -0.0290 ca         1 JGZ       0.718600
      2 C2          -4.3920    -3.3710    -0.0380 ca         1 JGZ      -0.446600
      3 C3          -3.0790    -3.7300    -0.2550 ca         1 JGZ       0.494200
      4 N4          -2.0950    -2.8600    -0.4470 nb         1 JGZ      -0.796000
      5 C5          -2.4390    -1.5720    -0.4300 ca         1 JGZ       0.940900
      6 N6          -3.6820    -1.1050    -0.2190 nb         1 JGZ      -0.848000
      7 O7          -5.8760    -1.5740     0.1880 os         1 JGZ      -0.367400
      8 C8          -6.1330    -0.2230     0.2250 ca         1 JGZ       0.126100
      9 N9          -1.4930    -0.6450    -0.6600 nu         1 JGZ      -0.859900
     10 C10         -0.0780    -0.9260    -0.7510 c6         1 JGZ       0.245500
     11 C11          0.6140     0.1650    -1.5520 c6         1 JGZ      -0.104400
     12 C12          2.1170    -0.0640    -1.6330 c6         1 JGZ       0.213800
     13 N13          2.7010    -0.2050    -0.3130 nh         1 JGZ      -0.670000
     14 C14          2.0800    -1.2550     0.4850 c6         1 JGZ       0.213800
     15 C15          0.5820    -1.0430     0.6190 c6         1 JGZ      -0.104400
     16 C16          4.0240     0.1090    -0.1140 ca         1 JGZ       0.239600
     17 C17          4.5680     0.1550     1.1850 ca         1 JGZ      -0.222000
     18 C18          5.8810     0.5110     1.4030 ca         1 JGZ       0.014500
     19 C19          6.7050     0.8290     0.3290 ca         1 JGZ      -0.333500
     20 C20          6.1990     0.7860    -0.9640 ca         1 JGZ       0.014500
     21 C21          4.8840     0.4290    -1.1830 ca         1 JGZ      -0.222000
     22 C22         -6.4950     0.4130    -0.9600 ca         1 JGZ      -0.065800
     23 C23         -6.8370     1.7560    -0.8900 ca         1 JGZ      -0.091500
     24 C24         -6.8050     2.4250     0.3310 ca         1 JGZ      -0.010000
     25 C25         -6.4320     1.7630     1.4980 ca         1 JGZ      -0.091500
     26 C26         -6.0830     0.4210     1.4590 ca         1 JGZ      -0.065800
     27 C27         -5.6720    -0.3100     2.7010 c3         1 JGZ      -0.047300
     28 C28         -6.5180    -0.3280    -2.2610 c3         1 JGZ      -0.047300
     29 C29         -7.1660     3.8040     0.3910 cg         1 JGZ       0.233800
     30 N30         -7.4660     4.9160     0.4420 n1         1 JGZ      -0.360800
     31 S31          8.3800     1.2760     0.5910 sy         1 JGZ       1.273200
     32 N32          9.1670    -0.1160     0.1530 n8         1 JGZ      -0.885700
     33 O33          8.7940     2.2760    -0.3850 o          1 JGZ      -0.619800
     34 O34          8.5500     1.5940     2.0050 o          1 JGZ      -0.619800
     35 H2          -5.1770    -4.0960     0.1170 ha         1 JGZ       0.168000
     36 H3          -2.8020    -4.7780    -0.2740 h4         1 JGZ       0.024100
     37 HN9         -1.7730     0.3140    -0.5210 hn         1 JGZ       0.448800
     38 H10          0.0370    -1.8770    -1.2790 h1         1 JGZ       0.083700
     39 H11          0.2150     0.2050    -2.5670 hc         1 JGZ       0.059700
     40 H11A         0.4250     1.1390    -1.0890 hc         1 JGZ       0.059700
     41 H12          2.3270    -0.9440    -2.2570 h1         1 JGZ       0.047450
     42 H12A         2.5550     0.7980    -2.1350 h1         1 JGZ       0.047450
     43 H14          2.2760    -2.2320     0.0210 h1         1 JGZ       0.047450
     44 H14A         2.5220    -1.2880     1.4760 h1         1 JGZ       0.047450
     45 H15          0.3910    -0.1330     1.1950 hc         1 JGZ       0.059700
     46 H15A         0.1540    -1.8800     1.1740 hc         1 JGZ       0.059700
     47 H17          3.9510    -0.0560     2.0470 ha         1 JGZ       0.136000
     48 H18          6.2510     0.5540     2.4190 ha         1 JGZ       0.151500
     49 H20          6.8280     1.0140    -1.8150 ha         1 JGZ       0.151500
     50 H21          4.5400     0.3800    -2.2060 ha         1 JGZ       0.136000
     51 H23         -7.1270     2.2840    -1.7890 ha         1 JGZ       0.146000
     52 H25         -6.4140     2.2950     2.4400 ha         1 JGZ       0.146000
     53 H27         -4.6410    -0.6600     2.6340 hc         1 JGZ       0.050700
     54 H27A        -5.7420     0.3420     3.5690 hc         1 JGZ       0.050700
     55 H27B        -6.3010    -1.1810     2.8840 hc         1 JGZ       0.050700
     56 H28         -7.1580    -1.2090    -2.2120 hc         1 JGZ       0.050700
     57 H28A        -6.8890     0.3100    -3.0610 hc         1 JGZ       0.050700
     58 H28B        -5.5190    -0.6630    -2.5440 hc         1 JGZ       0.050700
     59 HN32         9.0020    -0.8720     0.8100 hn         1 JGZ       0.412300
     60 HN3A        10.1660     0.0430     0.0570 hn         1 JGZ       0.412300
@<TRIPOS>BOND
     1     1     2 ar  
     2     1     6 ar  
     3     1     7 1   
     4     2     3 ar  
     5     2    35 1   
     6     3     4 ar  
     7     3    36 1   
     8     4     5 ar  
     9     5     6 ar  
    10     5     9 1   
    11     7     8 1   
    12     8    22 ar  
    13     8    26 ar  
    14     9    10 1   
    15     9    37 1   
    16    10    11 1   
    17    10    15 1   
    18    10    38 1   
    19    11    12 1   
    20    11    39 1   
    21    11    40 1   
    22    12    13 1   
    23    12    41 1   
    24    12    42 1   
    25    13    14 1   
    26    13    16 1   
    27    14    15 1   
    28    14    43 1   
    29    14    44 1   
    30    15    45 1   
    31    15    46 1   
    32    16    17 ar  
    33    16    21 ar  
    34    17    18 ar  
    35    17    47 1   
    36    18    19 ar  
    37    18    48 1   
    38    19    20 ar  
    39    19    31 1   
    40    20    21 ar  
    41    20    49 1   
    42    21    50 1   
    43    22    23 ar  
    44    22    28 1   
    45    23    24 ar  
    46    23    51 1   
    47    24    25 ar  
    48    24    29 1   
    49    25    26 ar  
    50    25    52 1   
    51    26    27 1   
    52    27    53 1   
    53    27    54 1   
    54    27    55 1   
    55    28    56 1   
    56    28    57 1   
    57    28    58 1   
    58    29    30 3   
    59    31    32 1   
    60    31    33 2   
    61    31    34 2   
    62    32    59 1   
    63    32    60 1   
@<TRIPOS>SUBSTRUCTURE
     1 JGZ         1 TEMP              0 ****  ****    0 ROOT
