@<TRIPOS>MOLECULE
JGZ
   60    63     1     0     0
SMALL
No Charge or Current Charge


@<TRIPOS>ATOM
      1 C1          -4.6110    -2.0150    -0.0230 ca         1 JGZ       0.390300
      2 C2          -4.3650    -3.3940    -0.0520 ca         1 JGZ      -0.298000
      3 C3          -3.0640    -3.8200    -0.3540 ca         1 JGZ       0.165900
      4 N4          -2.0820    -2.9370    -0.6070 nb         1 JGZ      -0.270000
      5 C5          -2.4200    -1.6350    -0.5520 ca         1 JGZ       0.414900
      6 N6          -3.6280    -1.1280    -0.2770 nb         1 JGZ      -0.322000
      7 O7          -5.8870    -1.5940     0.2720 os         1 JGZ      -0.367400
      8 C8          -6.2150    -0.2580     0.3440 ca         1 JGZ       0.126100
      9 N9          -1.4430    -0.6880    -0.8100 nu         1 JGZ      -0.915100
     10 C10         -0.0030    -0.9470    -0.9860 c6         1 JGZ       0.245500
     11 C11          0.6530     0.2550    -1.6980 c6         1 JGZ      -0.104400
     12 C12          2.1750     0.0400    -1.8450 c6         1 JGZ       0.213800
     13 N13          2.8010    -0.2330    -0.5220 nh         1 JGZ      -0.808400
     14 C14          2.1930    -1.3750     0.2160 c6         1 JGZ       0.213800
     15 C15          0.6730    -1.1730     0.3850 c6         1 JGZ      -0.104400
     16 C16          4.1430     0.1290    -0.2640 ca         1 JGZ       0.378000
     17 C17          4.5290     0.4720     1.0420 ca         1 JGZ      -0.204000
     18 C18          5.8550     0.8370     1.3270 ca         1 JGZ       0.032500
     19 C19          6.8120     0.8580     0.2940 ca         1 JGZ      -0.333500
     20 C20          6.4330     0.5160    -1.0180 ca         1 JGZ       0.032500
     21 C21          5.1040     0.1540    -1.2900 ca         1 JGZ      -0.204000
     22 C22         -6.6870     0.4080    -0.8080 ca         1 JGZ      -0.065800
     23 C23         -7.0170     1.7750    -0.7290 ca         1 JGZ      -0.073500
     24 C24         -6.8820     2.4710     0.4870 ca         1 JGZ      -0.010000
     25 C25         -6.4160     1.7980     1.6320 ca         1 JGZ      -0.073500
     26 C26         -6.0820     0.4310     1.5700 ca         1 JGZ      -0.065800
     27 C27         -5.5770    -0.2860     2.8180 c3         1 JGZ      -0.047300
     28 C28         -6.8360    -0.3340    -2.1320 c3         1 JGZ      -0.047300
     29 C29         -7.2200     3.8670     0.5600 cg         1 JGZ       0.323000
     30 N30         -7.5040     4.9980     0.6200 n1         1 JGZ      -0.450000
     31 S31          8.5050     1.3220     0.6400 sy         1 JGZ       1.131600
     32 N32          9.1900    -0.1370     0.9050 n8         1 JGZ      -0.996100
     33 O33          9.1540     1.8390    -0.5640 o          1 JGZ      -0.549000
     34 O34          8.5860     1.9880     1.9380 o          1 JGZ      -0.549000
     35 H2          -5.1570    -4.1070     0.1530 ha         1 JGZ       0.150000
     36 H3          -2.8040    -4.8770    -0.3940 h4         1 JGZ       0.024100
     37 HN9         -1.7580     0.2790    -0.7390 hn         1 JGZ       0.504000
     38 H10          0.1550    -1.8380    -1.6160 h1         1 JGZ       0.083700
     39 H11          0.2050     0.3980    -2.6900 hc         1 JGZ       0.059700
     40 H11A         0.4720     1.1780    -1.1300 hc         1 JGZ       0.059700
     41 H12          2.3620    -0.7990    -2.5330 h1         1 JGZ       0.047450
     42 H12A         2.6120     0.9420    -2.2980 h1         1 JGZ       0.047450
     43 H14          2.3770    -2.3130    -0.3300 h1         1 JGZ       0.047450
     44 H14A         2.6470    -1.4870     1.2110 h1         1 JGZ       0.047450
     45 H15          0.4900    -0.3130     1.0430 hc         1 JGZ       0.059700
     46 H15A         0.2420    -2.0500     0.8840 hc         1 JGZ       0.059700
     47 H17          3.7940     0.4690     1.8400 ha         1 JGZ       0.118000
     48 H18          6.1270     1.1040     2.3480 ha         1 JGZ       0.133500
     49 H20          7.1630     0.5240    -1.8270 ha         1 JGZ       0.133500
     50 H21          4.8300    -0.1190    -2.3040 ha         1 JGZ       0.118000
     51 H23         -7.3780     2.2970    -1.6120 ha         1 JGZ       0.128000
     52 H25         -6.3130     2.3380     2.5710 ha         1 JGZ       0.128000
     53 H27         -4.5190    -0.5540     2.7130 hc         1 JGZ       0.050700
     54 H27A        -5.6740     0.3380     3.7140 hc         1 JGZ       0.050700
     55 H27B        -6.1410    -1.2090     2.9980 hc         1 JGZ       0.050700
     56 H28         -7.4340    -1.2450    -2.0080 hc         1 JGZ       0.050700
     57 H28A        -7.3300     0.2810    -2.8930 hc         1 JGZ       0.050700
     58 H28B        -5.8560    -0.6270    -2.5280 hc         1 JGZ       0.050700
     59 HN32         8.3820    -0.7170     1.1150 hn         1 JGZ       0.467500
     60 HN3A         9.6250     0.0160     1.8110 hn         1 JGZ       0.467500
@<TRIPOS>BOND
     1     1     2 ar  
     2     1     6 ar  
     3     1     7 1   
     4     2     3 ar  
     5     2    35 1   
     6     3     4 ar  
     7     3    36 1   
     8     4     5 ar  
     9     5     6 ar  
    10     5     9 1   
    11     7     8 1   
    12     8    22 ar  
    13     8    26 ar  
    14     9    10 1   
    15     9    37 1   
    16    10    11 1   
    17    10    15 1   
    18    10    38 1   
    19    11    12 1   
    20    11    39 1   
    21    11    40 1   
    22    12    13 1   
    23    12    41 1   
    24    12    42 1   
    25    13    14 1   
    26    13    16 1   
    27    14    15 1   
    28    14    43 1   
    29    14    44 1   
    30    15    45 1   
    31    15    46 1   
    32    16    17 ar  
    33    16    21 ar  
    34    17    18 ar  
    35    17    47 1   
    36    18    19 ar  
    37    18    48 1   
    38    19    20 ar  
    39    19    31 1   
    40    20    21 ar  
    41    20    49 1   
    42    21    50 1   
    43    22    23 ar  
    44    22    28 1   
    45    23    24 ar  
    46    23    51 1   
    47    24    25 ar  
    48    24    29 1   
    49    25    26 ar  
    50    25    52 1   
    51    26    27 1   
    52    27    53 1   
    53    27    54 1   
    54    27    55 1   
    55    28    56 1   
    56    28    57 1   
    57    28    58 1   
    58    29    30 3   
    59    31    32 1   
    60    31    33 2   
    61    31    34 2   
    62    32    59 1   
    63    32    60 1   
@<TRIPOS>SUBSTRUCTURE
     1 JGZ         1 TEMP              0 ****  ****    0 ROOT
