@<TRIPOS>MOLECULE
JH0
  159   163     1     0     0
SMALL
abcg2


@<TRIPOS>ATOM
      1 O4          -3.5040     3.9710     5.1710 o          1 JH0      -0.580100
      2 C           -2.9350     5.0430     5.0310 c          1 JH0       0.613100
      3 C12         -2.5980     5.6030     3.6630 c3         1 JH0      -0.145400
      4 C13         -3.4580     5.0190     2.5500 c3         1 JH0      -0.069400
      5 C14         -4.9180     5.4520     2.6140 c3         1 JH0      -0.074400
      6 C15         -5.7260     4.9650     1.4190 c3         1 JH0      -0.076400
      7 C16         -7.1990     5.3460     1.4890 c3         1 JH0      -0.073400
      8 C17         -7.9830     4.9420     0.2480 c3         1 JH0      -0.074400
      9 C18         -9.4610     5.3020     0.3260 c3         1 JH0      -0.074400
     10 C19        -10.2360     4.9560    -0.9390 c3         1 JH0      -0.074400
     11 C20        -11.7190     5.2950    -0.8450 c3         1 JH0      -0.074400
     12 C21        -12.4940     4.9780    -2.1180 c3         1 JH0      -0.074400
     13 C22        -13.9790     5.3040    -2.0130 c3         1 JH0      -0.074400
     14 C23        -14.7560     4.9970    -3.2860 c3         1 JH0      -0.074400
     15 C24        -16.2420     5.3140    -3.1740 c3         1 JH0      -0.075400
     16 C25        -17.0250     5.0060    -4.4440 c3         1 JH0      -0.075400
     17 C26        -18.5090     5.3200    -4.3140 c3         1 JH0      -0.088100
     18 N           -2.5730     5.7860     6.1050 n          1 JH0      -0.296300
     19 ON1         -1.7910     6.8930     5.9010 oh         1 JH0      -0.445100
     20 C1          -2.6750     5.3600     7.4860 c3         1 JH0       0.103000
     21 C2          -1.3210     5.1410     8.1520 c3         1 JH0      -0.091400
     22 C3          -0.4230     4.1690     7.4020 c3         1 JH0      -0.076400
     23 C4           0.9480     4.0350     8.0540 c3         1 JH0      -0.086400
     24 C5           1.9860     3.3280     7.1770 c3         1 JH0       0.065700
     25 N2           2.1230     3.9630     5.8850 ns         1 JH0      -0.500900
     26 C11          2.8050     5.0940     5.6830 c          1 JH0       0.607100
     27 O3           3.4840     5.6590     6.5220 o          1 JH0      -0.586100
     28 C39          2.5990     5.6850     4.2880 c5         1 JH0       0.020500
     29 N4           3.7690     6.4260     3.8770 n2         1 JH0      -0.709900
     30 C38          3.4650     7.6660     3.8830 ce         1 JH0       0.694200
     31 O6           2.2040     7.9880     4.1730 os         1 JH0      -0.433600
     32 C37          1.4840     6.7560     4.3080 c5         1 JH0       0.123600
     33 C45          4.4080     8.7330     3.5950 ca         1 JH0      -0.264900
     34 C44          4.0100    10.0740     3.5780 ca         1 JH0      -0.019000
     35 C43          4.9200    11.0780     3.3140 ca         1 JH0      -0.177000
     36 C42          6.2500    10.7420     3.0630 ca         1 JH0      -0.041000
     37 C41          6.6650     9.4250     3.0740 ca         1 JH0      -0.179000
     38 C40          5.7540     8.4000     3.3380 ca         1 JH0       0.223100
     39 O7           6.1970     7.1450     3.3370 oh         1 JH0      -0.549100
     40 C6           1.6540     1.8540     6.9780 c          1 JH0       0.599100
     41 O            0.9590     1.2200     7.7260 o          1 JH0      -0.475000
     42 O1           2.2370     1.3620     5.8980 os         1 JH0      -0.449100
     43 C7           1.7160     0.1700     5.2840 c3         1 JH0       0.195300
     44 C9           2.6260    -1.0020     5.5870 c3         1 JH0      -0.111100
     45 C8           1.6310     0.4600     3.7940 c3         1 JH0      -0.170400
     46 C10          0.6570     1.5620     3.4250 c          1 JH0       0.614100
     47 O2           0.3260     2.4620     4.1900 o          1 JH0      -0.631100
     48 N1           0.1850     1.5010     2.1700 ns         1 JH0      -0.496900
     49 C35         -0.7370     2.4980     1.6540 c3         1 JH0       0.034700
     50 C36         -1.6370     1.8510     0.6010 c          1 JH0       0.543000
     51 O5          -2.7580     1.4890     0.9060 o          1 JH0      -0.511000
     52 C34         -0.0640     3.8170     1.2600 c3         1 JH0      -0.086400
     53 C33          1.1540     3.7140     0.3570 c3         1 JH0      -0.075400
     54 C32          0.8520     3.1830    -1.0330 c3         1 JH0      -0.088400
     55 C31          0.2560     1.7870    -1.0550 c3         1 JH0       0.098000
     56 N3          -1.1540     1.7380    -0.6600 n          1 JH0      -0.246300
     57 ON2         -1.9460     0.9730    -1.4860 os         1 JH0      -0.217800
     58 SI70        -2.7200     1.7120    -2.8190 s6         1 JH0       0.011700
     59 C27         -3.8990     3.1310    -2.3750 c3         1 JH0      -0.080000
     60 C28         -4.4710     3.6610    -3.7000 c3         1 JH0      -0.070433
     61 C29         -5.0610     2.5870    -1.5370 c3         1 JH0      -0.070433
     62 C30         -3.2400     4.2830    -1.6090 c3         1 JH0      -0.070433
     63 C46         -1.3790     2.1680    -4.0550 ca         1 JH0      -0.012500
     64 C47         -3.6830     0.2480    -3.4840 ca         1 JH0      -0.012500
     65 C48          0.3660     1.3670    -5.5460 ca         1 JH0      -0.126500
     66 C49          0.7370     2.6740    -5.8340 ca         1 JH0      -0.089500
     67 C50          0.0580     3.7280    -5.2390 ca         1 JH0      -0.126500
     68 C51         -0.9870     3.4740    -4.3590 ca         1 JH0      -0.062750
     69 C52         -0.6790     1.1210    -4.6680 ca         1 JH0      -0.062750
     70 C53         -3.9770     0.1520    -4.8470 ca         1 JH0      -0.062750
     71 C54         -4.7380    -0.8970    -5.3460 ca         1 JH0      -0.126500
     72 C55         -5.2180    -1.8750    -4.4860 ca         1 JH0      -0.089500
     73 C56         -4.9370    -1.7970    -3.1280 ca         1 JH0      -0.126500
     74 C57         -4.1800    -0.7440    -2.6330 ca         1 JH0      -0.062750
     75 H121        -2.6710     6.6910     3.6470 hc         1 JH0       0.059200
     76 H122        -1.5420     5.3770     3.4770 hc         1 JH0       0.059200
     77 H131        -3.3990     3.9280     2.5510 hc         1 JH0       0.049200
     78 H132        -3.0320     5.3460     1.5970 hc         1 JH0       0.049200
     79 H141        -5.3740     5.0810     3.5360 hc         1 JH0       0.041200
     80 H142        -4.9710     6.5450     2.6630 hc         1 JH0       0.041200
     81 H151        -5.2900     5.3690     0.4990 hc         1 JH0       0.040700
     82 H152        -5.6340     3.8770     1.3350 hc         1 JH0       0.040700
     83 H161        -7.6520     4.8850     2.3740 hc         1 JH0       0.037200
     84 H162        -7.2870     6.4290     1.6350 hc         1 JH0       0.037200
     85 H171        -7.8800     3.8640     0.0840 hc         1 JH0       0.037200
     86 H172        -7.5360     5.4210    -0.6310 hc         1 JH0       0.037200
     87 H181        -9.9140     4.7890     1.1820 hc         1 JH0       0.037200
     88 H182        -9.5630     6.3740     0.5300 hc         1 JH0       0.037200
     89 H191       -10.1220     3.8890    -1.1570 hc         1 JH0       0.036700
     90 H192        -9.7940     5.4860    -1.7900 hc         1 JH0       0.036700
     91 H201       -12.1620     4.7500    -0.0040 hc         1 JH0       0.037200
     92 H202       -11.8320     6.3590    -0.6070 hc         1 JH0       0.037200
     93 H211       -12.3730     3.9170    -2.3630 hc         1 JH0       0.037200
     94 H212       -12.0580     5.5330    -2.9560 hc         1 JH0       0.037200
     95 H221       -14.1000     6.3630    -1.7600 hc         1 JH0       0.037200
     96 H222       -14.4140     4.7440    -1.1780 hc         1 JH0       0.037200
     97 H231       -14.3260     5.5620    -4.1200 hc         1 JH0       0.036700
     98 H232       -14.6300     3.9390    -3.5430 hc         1 JH0       0.036700
     99 H241       -16.6720     4.7480    -2.3390 hc         1 JH0       0.036700
    100 H242       -16.3690     6.3710    -2.9170 hc         1 JH0       0.036700
    101 H251       -16.8960     3.9500    -4.7010 hc         1 JH0       0.036700
    102 H252       -16.6000     5.5730    -5.2780 hc         1 JH0       0.036700
    103 H261       -18.9620     4.7410    -3.5070 hc         1 JH0       0.031367
    104 H262       -19.0520     5.0900    -5.2310 hc         1 JH0       0.031367
    105 H263       -18.6690     6.3760    -4.0890 hc         1 JH0       0.031367
    106 HN1         -2.3720     7.6610     5.9970 ho         1 JH0       0.443000
    107 H11         -3.2460     6.1060     8.0450 h1         1 JH0       0.063700
    108 H12         -3.2580     4.4420     7.4920 h1         1 JH0       0.063700
    109 H21         -1.5140     4.7760     9.1640 hc         1 JH0       0.047200
    110 H22         -0.8060     6.0990     8.2680 hc         1 JH0       0.047200
    111 H31         -0.9130     3.1950     7.3300 hc         1 JH0       0.053200
    112 H32         -0.2980     4.5220     6.3750 hc         1 JH0       0.053200
    113 H41A         1.3430     5.0300     8.2750 hc         1 JH0       0.061700
    114 H42A         0.8730     3.5190     9.0130 hc         1 JH0       0.061700
    115 H5           2.9540     3.3640     7.6900 h1         1 JH0       0.094700
    116 HN2          1.5580     3.5800     5.1330 hn         1 JH0       0.352500
    117 H39          2.3800     4.8890     3.5700 h1         1 JH0       0.085700
    118 H371         0.7980     6.6560     3.4650 h1         1 JH0       0.075200
    119 H372         0.9020     6.7880     5.2290 h1         1 JH0       0.075200
    120 H44          2.9780    10.3280     3.7760 ha         1 JH0       0.124000
    121 H43          4.6040    12.1120     3.3040 ha         1 JH0       0.118000
    122 H42          6.9720    11.5220     2.8560 ha         1 JH0       0.114000
    123 H41          7.7000     9.1720     2.8790 ha         1 JH0       0.131000
    124 HO7          5.4360     6.5400     3.5380 ho         1 JH0       0.528000
    125 H7           0.7180    -0.0330     5.6780 h1         1 JH0       0.077700
    126 H91          2.6720    -1.1910     6.6590 hc         1 JH0       0.051367
    127 H92          2.2430    -1.9030     5.1080 hc         1 JH0       0.051367
    128 H93          3.6370    -0.8270     5.2200 hc         1 JH0       0.051367
    129 H81          1.3540    -0.4620     3.2780 hc         1 JH0       0.073700
    130 H82          2.6190     0.7350     3.4120 hc         1 JH0       0.073700
    131 H1           0.4650     0.7220     1.5960 hn         1 JH0       0.321500
    132 H35         -1.4310     2.7320     2.4630 h1         1 JH0       0.105700
    133 H341         0.2310     4.3070     2.1910 hc         1 JH0       0.055200
    134 H342        -0.8190     4.4660     0.8060 hc         1 JH0       0.055200
    135 H331         1.9100     3.0810     0.8320 hc         1 JH0       0.046700
    136 H332         1.6010     4.7060     0.2680 hc         1 JH0       0.046700
    137 H321         0.1830     3.8640    -1.5670 hc         1 JH0       0.057200
    138 H322         1.7790     3.1450    -1.6100 hc         1 JH0       0.057200
    139 H311         0.2920     1.4070    -2.0720 h1         1 JH0       0.053200
    140 H312         0.8600     1.0970    -0.4580 h1         1 JH0       0.053200
    141 H281        -4.9620     2.8790    -4.2830 hc         1 JH0       0.035033
    142 H282        -5.2260     4.4240    -3.4880 hc         1 JH0       0.035033
    143 H283        -3.7170     4.1240    -4.3380 hc         1 JH0       0.035033
    144 H291        -4.7310     2.2420    -0.5580 hc         1 JH0       0.035033
    145 H292        -5.5780     1.7630    -2.0320 hc         1 JH0       0.035033
    146 H293        -5.7990     3.3780    -1.3750 hc         1 JH0       0.035033
    147 H301        -2.3520     4.6810    -2.1010 hc         1 JH0       0.035033
    148 H302        -3.9500     5.1090    -1.5090 hc         1 JH0       0.035033
    149 H303        -2.9540     3.9870    -0.6000 hc         1 JH0       0.035033
    150 H48          0.8910     0.5390    -6.0070 ha         1 JH0       0.113750
    151 H49          1.5520     2.8690    -6.5200 ha         1 JH0       0.112000
    152 H50          0.3410     4.7490    -5.4570 ha         1 JH0       0.113750
    153 H51         -1.4920     4.3190    -3.9110 ha         1 JH0       0.115250
    154 H52         -0.9500     0.0920    -4.4590 ha         1 JH0       0.115250
    155 H53         -3.6030     0.9000    -5.5370 ha         1 JH0       0.115250
    156 H54         -4.9530    -0.9520    -6.4060 ha         1 JH0       0.113750
    157 H55         -5.8060    -2.6970    -4.8730 ha         1 JH0       0.112000
    158 H56         -5.3090    -2.5580    -2.4530 ha         1 JH0       0.113750
    159 H57         -3.9780    -0.7010    -1.5690 ha         1 JH0       0.115250
@<TRIPOS>BOND
     1     1     2 2   
     2     2     3 1   
     3     2    18 1   
     4     3     4 1   
     5     3    75 1   
     6     3    76 1   
     7     4     5 1   
     8     4    77 1   
     9     4    78 1   
    10     5     6 1   
    11     5    79 1   
    12     5    80 1   
    13     6     7 1   
    14     6    81 1   
    15     6    82 1   
    16     7     8 1   
    17     7    83 1   
    18     7    84 1   
    19     8     9 1   
    20     8    85 1   
    21     8    86 1   
    22     9    10 1   
    23     9    87 1   
    24     9    88 1   
    25    10    11 1   
    26    10    89 1   
    27    10    90 1   
    28    11    12 1   
    29    11    91 1   
    30    11    92 1   
    31    12    13 1   
    32    12    93 1   
    33    12    94 1   
    34    13    14 1   
    35    13    95 1   
    36    13    96 1   
    37    14    15 1   
    38    14    97 1   
    39    14    98 1   
    40    15    16 1   
    41    15    99 1   
    42    15   100 1   
    43    16    17 1   
    44    16   101 1   
    45    16   102 1   
    46    17   103 1   
    47    17   104 1   
    48    17   105 1   
    49    18    19 1   
    50    18    20 1   
    51    19   106 1   
    52    20    21 1   
    53    20   107 1   
    54    20   108 1   
    55    21    22 1   
    56    21   109 1   
    57    21   110 1   
    58    22    23 1   
    59    22   111 1   
    60    22   112 1   
    61    23    24 1   
    62    23   113 1   
    63    23   114 1   
    64    24    25 1   
    65    24    40 1   
    66    24   115 1   
    67    25    26 1   
    68    25   116 1   
    69    26    27 2   
    70    26    28 1   
    71    28    29 1   
    72    28    32 1   
    73    28   117 1   
    74    29    30 2   
    75    30    31 1   
    76    30    33 1   
    77    31    32 1   
    78    32   118 1   
    79    32   119 1   
    80    33    34 ar  
    81    33    38 ar  
    82    34    35 ar  
    83    34   120 1   
    84    35    36 ar  
    85    35   121 1   
    86    36    37 ar  
    87    36   122 1   
    88    37    38 ar  
    89    37   123 1   
    90    38    39 1   
    91    39   124 1   
    92    40    41 2   
    93    40    42 1   
    94    42    43 1   
    95    43    44 1   
    96    43    45 1   
    97    43   125 1   
    98    44   126 1   
    99    44   127 1   
   100    44   128 1   
   101    45    46 1   
   102    45   129 1   
   103    45   130 1   
   104    46    47 2   
   105    46    48 1   
   106    48    49 1   
   107    48   131 1   
   108    49    50 1   
   109    49    52 1   
   110    49   132 1   
   111    50    51 2   
   112    50    56 1   
   113    52    53 1   
   114    52   133 1   
   115    52   134 1   
   116    53    54 1   
   117    53   135 1   
   118    53   136 1   
   119    54    55 1   
   120    54   137 1   
   121    54   138 1   
   122    55    56 1   
   123    55   139 1   
   124    55   140 1   
   125    56    57 1   
   126    57    58 1   
   127    58    59 1   
   128    58    63 1   
   129    58    64 1   
   130    59    60 1   
   131    59    61 1   
   132    59    62 1   
   133    60   141 1   
   134    60   142 1   
   135    60   143 1   
   136    61   144 1   
   137    61   145 1   
   138    61   146 1   
   139    62   147 1   
   140    62   148 1   
   141    62   149 1   
   142    63    68 ar  
   143    63    69 ar  
   144    64    70 ar  
   145    64    74 ar  
   146    65    66 ar  
   147    65    69 ar  
   148    65   150 1   
   149    66    67 ar  
   150    66   151 1   
   151    67    68 ar  
   152    67   152 1   
   153    68   153 1   
   154    69   154 1   
   155    70    71 ar  
   156    70   155 1   
   157    71    72 ar  
   158    71   156 1   
   159    72    73 ar  
   160    72   157 1   
   161    73    74 ar  
   162    73   158 1   
   163    74   159 1   
@<TRIPOS>SUBSTRUCTURE
     1 JH0         1 TEMP              0 ****  ****    0 ROOT
