@<TRIPOS>MOLECULE
JH0
  159   163     1     0     0
SMALL
No Charge or Current Charge


@<TRIPOS>ATOM
      1 O4          -2.3540     3.6090     4.3900 o          1 JH0      -0.580100
      2 C           -2.3830     4.8340     4.3890 c          1 JH0       0.613100
      3 C12         -2.0130     5.6100     3.1070 c3         1 JH0      -0.145400
      4 C13         -2.9710     5.3060     1.9330 c3         1 JH0      -0.069400
      5 C14         -4.4300     5.7500     2.1800 c3         1 JH0      -0.074400
      6 C15         -5.3550     5.4120     0.9920 c3         1 JH0      -0.076400
      7 C16         -6.8280     5.8090     1.2260 c3         1 JH0      -0.073400
      8 C17         -7.7390     5.4460     0.0330 c3         1 JH0      -0.074400
      9 C18         -9.2150     5.8380     0.2560 c3         1 JH0      -0.074400
     10 C19        -10.1240     5.4710    -0.9370 c3         1 JH0      -0.074400
     11 C20        -11.6010     5.8620    -0.7150 c3         1 JH0      -0.074400
     12 C21        -12.5090     5.4950    -1.9090 c3         1 JH0      -0.074400
     13 C22        -13.9870     5.8850    -1.6870 c3         1 JH0      -0.074400
     14 C23        -14.8950     5.5180    -2.8810 c3         1 JH0      -0.074400
     15 C24        -16.3730     5.9090    -2.6590 c3         1 JH0      -0.075400
     16 C25        -17.2810     5.5420    -3.8530 c3         1 JH0      -0.075400
     17 C26        -18.7550     5.9320    -3.6320 c3         1 JH0      -0.088100
     18 N           -2.7040     5.5530     5.5790 n          1 JH0      -0.296300
     19 ON1         -2.7220     6.9970     5.6140 oh         1 JH0      -0.445100
     20 C1          -2.9660     4.8820     6.8760 c3         1 JH0       0.103000
     21 C2          -1.7220     4.8180     7.7940 c3         1 JH0      -0.091400
     22 C3          -0.5320     4.0720     7.1500 c3         1 JH0      -0.076400
     23 C4           0.7130     3.9520     8.0630 c3         1 JH0      -0.086400
     24 C5           1.9420     3.3020     7.3590 c3         1 JH0       0.065700
     25 N2           2.3200     4.0470     6.1280 ns         1 JH0      -0.500900
     26 C11          2.8020     5.3360     6.0780 c          1 JH0       0.607100
     27 O3           3.0350     6.0060     7.0760 o          1 JH0      -0.586100
     28 C39          3.0480     5.7280     4.5790 c5         1 JH0       0.020500
     29 N4           3.9800     6.8900     4.3920 n2         1 JH0      -0.709900
     30 C38          3.2090     7.9290     4.2790 ce         1 JH0       0.694200
     31 O6           1.8530     7.6980     4.2230 os         1 JH0      -0.433600
     32 C37          1.7290     6.2840     3.9990 c5         1 JH0       0.123600
     33 C45          3.7170     9.3320     4.2220 ca         1 JH0      -0.264900
     34 C44          2.8010    10.4010     4.0960 ca         1 JH0      -0.019000
     35 C43          3.2570    11.7290     4.0400 ca         1 JH0      -0.177000
     36 C42          4.6300    12.0100     4.1080 ca         1 JH0      -0.041000
     37 C41          5.5460    10.9550     4.2330 ca         1 JH0      -0.179000
     38 C40          5.0970     9.6270     4.2890 ca         1 JH0       0.223100
     39 O7           6.0200     8.6350     4.4100 oh         1 JH0      -0.549100
     40 C6           1.7180     1.7930     7.0120 c          1 JH0       0.599100
     41 O            0.8630     1.0840     7.5280 o          1 JH0      -0.475000
     42 O1           2.3810     1.4670     5.8550 os         1 JH0      -0.449100
     43 C7           2.0260     0.2860     5.1270 c3         1 JH0       0.195300
     44 C9           2.8340    -0.8930     5.7020 c3         1 JH0      -0.111100
     45 C8           2.3590     0.5980     3.6540 c3         1 JH0      -0.170400
     46 C10          1.4960     1.7460     3.1200 c          1 JH0       0.614100
     47 O2           1.6410     2.9060     3.4820 o          1 JH0      -0.631100
     48 N1           0.5690     1.3820     2.1680 ns         1 JH0      -0.496900
     49 C35         -0.3580     2.3090     1.4710 c3         1 JH0       0.034700
     50 C36         -1.4350     1.5000     0.6860 c          1 JH0       0.543000
     51 O5          -2.4860     1.1930     1.2360 o          1 JH0      -0.511000
     52 C34          0.3620     3.4050     0.6290 c3         1 JH0      -0.086400
     53 C33          1.4870     2.9110    -0.3120 c3         1 JH0      -0.075400
     54 C32          0.9980     2.0770    -1.5130 c3         1 JH0      -0.088400
     55 C31          0.1630     0.8450    -1.1180 c3         1 JH0       0.098000
     56 N3          -1.2070     1.1850    -0.6800 n          1 JH0      -0.246300
     57 ON2         -2.2280     0.4900    -1.4120 os         1 JH0      -0.217800
     58 SI70        -2.8000     1.1570    -2.8220 s6         1 JH0       0.011700
     59 C27         -3.9060     2.5310    -2.2580 c3         1 JH0      -0.080000
     60 C28         -4.6080     3.1320    -3.5070 c3         1 JH0      -0.070433
     61 C29         -5.0060     1.9500    -1.3290 c3         1 JH0      -0.070433
     62 C30         -3.1210     3.6350    -1.4970 c3         1 JH0      -0.070433
     63 C46         -1.3690     1.6360    -3.9740 ca         1 JH0      -0.012500
     64 C47         -3.8270    -0.1810    -3.6640 ca         1 JH0      -0.012500
     65 C48          0.5430     0.9110    -5.3520 ca         1 JH0      -0.126500
     66 C49          0.7910     2.2380    -5.7320 ca         1 JH0      -0.089500
     67 C50         -0.0380     3.2640    -5.2560 ca         1 JH0      -0.126500
     68 C51         -1.1090     2.9710    -4.3940 ca         1 JH0      -0.062750
     69 C52         -0.5260     0.6130    -4.4910 ca         1 JH0      -0.062750
     70 C53         -3.9390    -0.2340    -5.0790 ca         1 JH0      -0.062750
     71 C54         -4.7040    -1.2340    -5.7040 ca         1 JH0      -0.126500
     72 C55         -5.3710    -2.1990    -4.9320 ca         1 JH0      -0.089500
     73 C56         -5.2710    -2.1660    -3.5310 ca         1 JH0      -0.126500
     74 C57         -4.5070    -1.1680    -2.9020 ca         1 JH0      -0.062750
     75 H121        -1.9810     6.6900     3.2760 hc         1 JH0       0.059200
     76 H122        -1.0100     5.2880     2.8070 hc         1 JH0       0.059200
     77 H131        -2.9550     4.2280     1.7320 hc         1 JH0       0.049200
     78 H132        -2.5920     5.8010     1.0290 hc         1 JH0       0.049200
     79 H141        -4.8150     5.2580     3.0820 hc         1 JH0       0.041200
     80 H142        -4.4550     6.8310     2.3650 hc         1 JH0       0.041200
     81 H151        -4.9870     5.9220     0.0930 hc         1 JH0       0.040700
     82 H152        -5.3030     4.3350     0.7970 hc         1 JH0       0.040700
     83 H161        -7.1980     5.3060     2.1290 hc         1 JH0       0.037200
     84 H162        -6.8860     6.8890     1.4120 hc         1 JH0       0.037200
     85 H171        -7.6780     4.3660    -0.1510 hc         1 JH0       0.037200
     86 H172        -7.3660     5.9460    -0.8700 hc         1 JH0       0.037200
     87 H181        -9.5880     5.3380     1.1590 hc         1 JH0       0.037200
     88 H182        -9.2780     6.9180     0.4390 hc         1 JH0       0.037200
     89 H191       -10.0600     4.3910    -1.1200 hc         1 JH0       0.036700
     90 H192        -9.7510     5.9710    -1.8400 hc         1 JH0       0.036700
     91 H201       -11.9740     5.3620     0.1880 hc         1 JH0       0.037200
     92 H202       -11.6650     6.9420    -0.5330 hc         1 JH0       0.037200
     93 H211       -12.4460     4.4150    -2.0910 hc         1 JH0       0.037200
     94 H212       -12.1370     5.9940    -2.8120 hc         1 JH0       0.037200
     95 H221       -14.0510     6.9650    -1.5050 hc         1 JH0       0.037200
     96 H222       -14.3600     5.3850    -0.7840 hc         1 JH0       0.037200
     97 H231       -14.5220     6.0180    -3.7840 hc         1 JH0       0.036700
     98 H232       -14.8320     4.4380    -3.0630 hc         1 JH0       0.036700
     99 H241       -16.7460     5.4090    -1.7560 hc         1 JH0       0.036700
    100 H242       -16.4360     6.9890    -2.4770 hc         1 JH0       0.036700
    101 H251       -17.2220     4.4620    -4.0370 hc         1 JH0       0.036700
    102 H252       -16.9130     6.0420    -4.7580 hc         1 JH0       0.036700
    103 H261       -19.1650     5.4200    -2.7530 hc         1 JH0       0.031367
    104 H262       -19.3590     5.6520    -4.5030 hc         1 JH0       0.031367
    105 H263       -18.8520     7.0130    -3.4800 hc         1 JH0       0.031367
    106 HN1         -3.6530     7.2520     5.4220 ho         1 JH0       0.443000
    107 H11         -3.7640     5.4260     7.3980 h1         1 JH0       0.063700
    108 H12         -3.3360     3.8640     6.6960 h1         1 JH0       0.063700
    109 H21         -2.0000     4.3200     8.7310 hc         1 JH0       0.047200
    110 H22         -1.4150     5.8390     8.0540 hc         1 JH0       0.047200
    111 H31         -0.8630     3.0710     6.8470 hc         1 JH0       0.053200
    112 H32         -0.2480     4.6010     6.2340 hc         1 JH0       0.053200
    113 H41A         0.9900     4.9500     8.4200 hc         1 JH0       0.061700
    114 H42A         0.4560     3.3700     8.9580 hc         1 JH0       0.061700
    115 H5           2.7990     3.3270     8.0440 h1         1 JH0       0.094700
    116 HN2          2.1970     3.5690     5.2340 hn         1 JH0       0.352500
    117 H39          3.3970     4.8450     4.0280 h1         1 JH0       0.085700
    118 H371         1.6660     6.1010     2.9170 h1         1 JH0       0.075200
    119 H372         0.8230     5.8920     4.4800 h1         1 JH0       0.075200
    120 H44          1.7300    10.2120     4.0410 ha         1 JH0       0.124000
    121 H43          2.5420    12.5430     3.9440 ha         1 JH0       0.118000
    122 H42          4.9810    13.0390     4.0650 ha         1 JH0       0.114000
    123 H41          6.6110    11.1680     4.2860 ha         1 JH0       0.131000
    124 HO7          5.5010     7.7860     4.4330 ho         1 JH0       0.528000
    125 H7           0.9500     0.0700     5.2020 h1         1 JH0       0.077700
    126 H91          2.5580    -1.0810     6.7460 hc         1 JH0       0.051367
    127 H92          2.6370    -1.8080     5.1310 hc         1 JH0       0.051367
    128 H93          3.9100    -0.6860     5.6600 hc         1 JH0       0.051367
    129 H81          2.1950    -0.3060     3.0560 hc         1 JH0       0.073700
    130 H82          3.4120     0.8920     3.5870 hc         1 JH0       0.073700
    131 H1           0.5190     0.3930     1.9490 hn         1 JH0       0.321500
    132 H35         -0.9250     2.8350     2.2500 h1         1 JH0       0.105700
    133 H341         0.8030     4.1340     1.3190 hc         1 JH0       0.055200
    134 H342        -0.3820     3.9640     0.0490 hc         1 JH0       0.055200
    135 H331         2.2240     2.3320     0.2580 hc         1 JH0       0.046700
    136 H332         2.0240     3.7850    -0.6990 hc         1 JH0       0.046700
    137 H321         0.4150     2.7210    -2.1790 hc         1 JH0       0.057200
    138 H322         1.8710     1.7420    -2.0860 hc         1 JH0       0.057200
    139 H311         0.1000     0.1700    -1.9790 h1         1 JH0       0.053200
    140 H312         0.6780     0.2870    -0.3260 h1         1 JH0       0.053200
    141 H281        -5.1910     2.3680    -4.0360 hc         1 JH0       0.035033
    142 H282        -5.3010     3.9310    -3.2170 hc         1 JH0       0.035033
    143 H283        -3.8950     3.5560    -4.2190 hc         1 JH0       0.035033
    144 H291        -4.5740     1.4690    -0.4440 hc         1 JH0       0.035033
    145 H292        -5.6180     1.2070    -1.8530 hc         1 JH0       0.035033
    146 H293        -5.6790     2.7430    -0.9830 hc         1 JH0       0.035033
    147 H301        -2.1480     3.8480    -1.9450 hc         1 JH0       0.035033
    148 H302        -3.6920     4.5710    -1.4730 hc         1 JH0       0.035033
    149 H303        -2.9460     3.3460    -0.4580 hc         1 JH0       0.035033
    150 H48          1.1780     0.1110    -5.7260 ha         1 JH0       0.113750
    151 H49          1.6180     2.4690    -6.4000 ha         1 JH0       0.112000
    152 H50          0.1470     4.2930    -5.5580 ha         1 JH0       0.113750
    153 H51         -1.7290     3.7910    -4.0560 ha         1 JH0       0.115250
    154 H52         -0.7090    -0.4210    -4.2100 ha         1 JH0       0.115250
    155 H53         -3.4290     0.5090    -5.6880 ha         1 JH0       0.115250
    156 H54         -4.7810    -1.2600    -6.7890 ha         1 JH0       0.113750
    157 H55         -5.9630    -2.9720    -5.4180 ha         1 JH0       0.112000
    158 H56         -5.7860    -2.9130    -2.9320 ha         1 JH0       0.113750
    159 H57         -4.4330    -1.1500    -1.8180 ha         1 JH0       0.115250
@<TRIPOS>BOND
     1     1     2 2   
     2     2     3 1   
     3     2    18 1   
     4     3     4 1   
     5     3    75 1   
     6     3    76 1   
     7     4     5 1   
     8     4    77 1   
     9     4    78 1   
    10     5     6 1   
    11     5    79 1   
    12     5    80 1   
    13     6     7 1   
    14     6    81 1   
    15     6    82 1   
    16     7     8 1   
    17     7    83 1   
    18     7    84 1   
    19     8     9 1   
    20     8    85 1   
    21     8    86 1   
    22     9    10 1   
    23     9    87 1   
    24     9    88 1   
    25    10    11 1   
    26    10    89 1   
    27    10    90 1   
    28    11    12 1   
    29    11    91 1   
    30    11    92 1   
    31    12    13 1   
    32    12    93 1   
    33    12    94 1   
    34    13    14 1   
    35    13    95 1   
    36    13    96 1   
    37    14    15 1   
    38    14    97 1   
    39    14    98 1   
    40    15    16 1   
    41    15    99 1   
    42    15   100 1   
    43    16    17 1   
    44    16   101 1   
    45    16   102 1   
    46    17   103 1   
    47    17   104 1   
    48    17   105 1   
    49    18    19 1   
    50    18    20 1   
    51    19   106 1   
    52    20    21 1   
    53    20   107 1   
    54    20   108 1   
    55    21    22 1   
    56    21   109 1   
    57    21   110 1   
    58    22    23 1   
    59    22   111 1   
    60    22   112 1   
    61    23    24 1   
    62    23   113 1   
    63    23   114 1   
    64    24    25 1   
    65    24    40 1   
    66    24   115 1   
    67    25    26 1   
    68    25   116 1   
    69    26    27 2   
    70    26    28 1   
    71    28    29 1   
    72    28    32 1   
    73    28   117 1   
    74    29    30 2   
    75    30    31 1   
    76    30    33 1   
    77    31    32 1   
    78    32   118 1   
    79    32   119 1   
    80    33    34 ar  
    81    33    38 ar  
    82    34    35 ar  
    83    34   120 1   
    84    35    36 ar  
    85    35   121 1   
    86    36    37 ar  
    87    36   122 1   
    88    37    38 ar  
    89    37   123 1   
    90    38    39 1   
    91    39   124 1   
    92    40    41 2   
    93    40    42 1   
    94    42    43 1   
    95    43    44 1   
    96    43    45 1   
    97    43   125 1   
    98    44   126 1   
    99    44   127 1   
   100    44   128 1   
   101    45    46 1   
   102    45   129 1   
   103    45   130 1   
   104    46    47 2   
   105    46    48 1   
   106    48    49 1   
   107    48   131 1   
   108    49    50 1   
   109    49    52 1   
   110    49   132 1   
   111    50    51 2   
   112    50    56 1   
   113    52    53 1   
   114    52   133 1   
   115    52   134 1   
   116    53    54 1   
   117    53   135 1   
   118    53   136 1   
   119    54    55 1   
   120    54   137 1   
   121    54   138 1   
   122    55    56 1   
   123    55   139 1   
   124    55   140 1   
   125    56    57 1   
   126    57    58 1   
   127    58    59 1   
   128    58    63 1   
   129    58    64 1   
   130    59    60 1   
   131    59    61 1   
   132    59    62 1   
   133    60   141 1   
   134    60   142 1   
   135    60   143 1   
   136    61   144 1   
   137    61   145 1   
   138    61   146 1   
   139    62   147 1   
   140    62   148 1   
   141    62   149 1   
   142    63    68 ar  
   143    63    69 ar  
   144    64    70 ar  
   145    64    74 ar  
   146    65    66 ar  
   147    65    69 ar  
   148    65   150 1   
   149    66    67 ar  
   150    66   151 1   
   151    67    68 ar  
   152    67   152 1   
   153    68   153 1   
   154    69   154 1   
   155    70    71 ar  
   156    70   155 1   
   157    71    72 ar  
   158    71   156 1   
   159    72    73 ar  
   160    72   157 1   
   161    73    74 ar  
   162    73   158 1   
   163    74   159 1   
@<TRIPOS>SUBSTRUCTURE
     1 JH0         1 TEMP              0 ****  ****    0 ROOT
