@<TRIPOS>MOLECULE
JH1
   32    33     1     0     0
SMALL
bcc


@<TRIPOS>ATOM
      1 C13          3.5820     0.1780    -1.1720 ca         1 JH1      -0.088500
      2 C15          4.5880    -0.4800     0.8810 ca         1 JH1       0.138900
      3 C17          2.4790     0.6230     0.9060 ca         1 JH1      -0.088500
      4 C01         -6.4350    -0.8060    -0.1570 c3         1 JH1      -0.109100
      5 N03         -4.0210    -0.6890     0.3290 na         1 JH1       0.110400
      6 C04         -3.1840     0.3250     0.5600 cc         1 JH1      -0.062300
      7 C05         -2.0600     0.1040    -0.2130 cd         1 JH1      -0.356900
      8 C06         -2.3460    -1.1020    -0.8840 cd         1 JH1       0.332200
      9 N07         -3.5290    -1.5670    -0.5460 nc         1 JH1      -0.524800
     10 C08         -0.8870     0.9880    -0.2460 c          1 JH1       0.724700
     11 O09         -0.8380     2.0010     0.4450 o          1 JH1      -0.623100
     12 N10          0.1050     0.6150    -1.0760 ns         1 JH1      -0.568900
     13 C12          2.4940     0.7030    -0.4860 ca         1 JH1      -0.132300
     14 C14          4.6410    -0.4170    -0.4960 ca         1 JH1      -0.173000
     15 C16          3.5230     0.0320     1.6000 ca         1 JH1      -0.173000
     16 F18          5.6040    -1.0540     1.5470 f          1 JH1      -0.144900
     17 H131         3.6130     0.2300    -2.2540 ha         1 JH1       0.141000
     18 H171         1.6450     1.0350     1.4600 ha         1 JH1       0.141000
     19 H012        -7.4070    -0.9350     0.3170 hc         1 JH1       0.052033
     20 H013        -6.4290     0.1630    -0.6560 hc         1 JH1       0.052033
     21 H011        -6.3190    -1.5850    -0.9090 hc         1 JH1       0.052033
     22 H021        -5.4790    -0.1220     1.6550 h1         1 JH1       0.061700
     23 H022        -5.3580    -1.8550     1.3950 h1         1 JH1       0.061700
     24 H041        -3.4260     1.1230     1.2440 h4         1 JH1       0.189000
     25 H061        -1.7380    -1.6480    -1.5910 h4         1 JH1       0.035100
     26 H101         0.0250    -0.2520    -1.5810 hn         1 JH1       0.314500
     27 H111         1.5830     1.4000    -2.2920 h1         1 JH1       0.064200
     28 H112         1.1880     2.3610    -0.8800 h1         1 JH1       0.064200
     29 H141         5.4860    -0.8260    -1.0340 ha         1 JH1       0.150000
     30 H161         3.5100    -0.0270     2.6800 ha         1 JH1       0.150000
     31 C11          1.3460     1.3410    -1.2290 c3         1 JH1       0.150300
     32 C02         -5.3430    -0.8880     0.8930 c3         1 JH1       0.058300
@<TRIPOS>BOND
     1     1    13 ar  
     2     1    14 ar  
     3     1    17 1   
     4     2    14 ar  
     5     2    15 ar  
     6     2    16 1   
     7     3    13 ar  
     8     3    15 ar  
     9     3    18 1   
    10     4    19 1   
    11     4    20 1   
    12     4    21 1   
    13     4    32 1   
    14     5     6 1   
    15     5     9 1   
    16     5    32 1   
    17     6     7 2   
    18     6    24 1   
    19     7     8 1   
    20     7    10 1   
    21     8     9 2   
    22     8    25 1   
    23    10    11 2   
    24    10    12 1   
    25    12    26 1   
    26    12    31 1   
    27    13    31 1   
    28    14    29 1   
    29    15    30 1   
    30    22    32 1   
    31    23    32 1   
    32    27    31 1   
    33    28    31 1   
@<TRIPOS>SUBSTRUCTURE
     1 JH1         1 TEMP              0 ****  ****    0 ROOT
