@<TRIPOS>MOLECULE
JH1
   32    33     1     0     0
SMALL
No Charge or Current Charge


@<TRIPOS>ATOM
      1 C13          3.0610     0.0540    -1.3050 ca         1 JH1      -0.070500
      2 C15          4.8330    -0.7920     0.1300 ca         1 JH1       0.174000
      3 C17          3.1580     0.7180     1.0370 ca         1 JH1      -0.070500
      4 C01         -6.2700    -1.2350    -0.7890 c3         1 JH1      -0.109100
      5 N03         -4.1600    -0.6060     0.4280 na         1 JH1       0.131800
      6 C04         -3.5830     0.6060     0.0640 cc         1 JH1      -0.095000
      7 C05         -2.2390     0.3480     0.0860 cd         1 JH1      -0.291600
      8 C06         -2.0860    -1.0020     0.4610 cd         1 JH1       0.266900
      9 N07         -3.2390    -1.6060     0.6750 nc         1 JH1      -0.524800
     10 C08         -1.1970     1.3420    -0.2350 c          1 JH1       0.657700
     11 O09         -1.4360     2.4980    -0.5520 o          1 JH1      -0.623100
     12 N10          0.0800     0.8500    -0.1450 ns         1 JH1      -0.501900
     13 C12          2.5300     0.7850    -0.2230 ca         1 JH1      -0.132300
     14 C14          4.2130    -0.7340    -1.1280 ca         1 JH1      -0.155000
     15 C16          4.3090    -0.0700     1.2120 ca         1 JH1      -0.155000
     16 F18          5.9390    -1.5490     0.2990 f          1 JH1      -0.180000
     17 H131         2.5820     0.0950    -2.2820 ha         1 JH1       0.123000
     18 H171         2.7530     1.2760     1.8800 ha         1 JH1       0.123000
     19 H012        -7.3390    -1.4260    -0.6440 hc         1 JH1       0.052033
     20 H013        -6.1600    -0.4120    -1.5060 hc         1 JH1       0.052033
     21 H011        -5.8130    -2.1340    -1.2200 hc         1 JH1       0.052033
     22 H021        -6.0870     0.0110     0.9750 h1         1 JH1       0.061700
     23 H022        -5.7470    -1.7040     1.2620 h1         1 JH1       0.061700
     24 H041        -4.1530     1.4990    -0.1680 h4         1 JH1       0.171000
     25 H061        -1.1680    -1.5650     0.5840 h4         1 JH1       0.035100
     26 H101         0.1860    -0.1190     0.1240 hn         1 JH1       0.314500
     27 H111         1.2410     2.0130    -1.4420 h1         1 JH1       0.064200
     28 H112         1.3080     2.4940     0.2680 h1         1 JH1       0.064200
     29 H141         4.6240    -1.2970    -1.9610 ha         1 JH1       0.132000
     30 H161         4.7940    -0.1210     2.1840 ha         1 JH1       0.132000
     31 C11          1.2820     1.6310    -0.4120 c3         1 JH1       0.150300
     32 C02         -5.6020    -0.8780     0.5540 c3         1 JH1       0.087600
@<TRIPOS>BOND
     1     1    13 ar  
     2     1    14 ar  
     3     1    17 1   
     4     2    14 ar  
     5     2    15 ar  
     6     2    16 1   
     7     3    13 ar  
     8     3    15 ar  
     9     3    18 1   
    10     4    19 1   
    11     4    20 1   
    12     4    21 1   
    13     4    32 1   
    14     5     6 1   
    15     5     9 1   
    16     5    32 1   
    17     6     7 2   
    18     6    24 1   
    19     7     8 1   
    20     7    10 1   
    21     8     9 2   
    22     8    25 1   
    23    10    11 2   
    24    10    12 1   
    25    12    26 1   
    26    12    31 1   
    27    13    31 1   
    28    14    29 1   
    29    15    30 1   
    30    22    32 1   
    31    23    32 1   
    32    27    31 1   
    33    28    31 1   
@<TRIPOS>SUBSTRUCTURE
     1 JH1         1 TEMP              0 ****  ****    0 ROOT
