@<TRIPOS>MOLECULE
JH2
   48    48     1     0     0
SMALL
bcc


@<TRIPOS>ATOM
      1 C1          -5.4910     0.7400    -0.0470 c          1 JH2       0.647300
      2 O1          -5.7790     1.7630     0.7590 os         1 JH2      -0.420900
      3 C2          -4.0400     0.5670    -0.1610 ce         1 JH2      -0.249200
      4 O2          -6.3450     0.0730    -0.5860 o          1 JH2      -0.546000
      5 C3          -3.4290    -0.3570    -0.9200 c2         1 JH2      -0.014400
      6 O3           5.0930    -0.4300    -0.6130 op         1 JH2      -0.395600
      7 C4          -1.9310    -0.4370    -0.9040 c3         1 JH2      -0.055200
      8 C5          -1.4310    -1.7260    -0.2280 c3         1 JH2      -0.035200
      9 C6           0.0640    -1.7940    -0.2410 c2         1 JH2      -0.173200
     10 C7           0.8950    -1.6130     0.7880 c2         1 JH2      -0.109400
     11 C8           2.3850    -1.6650     0.5840 c3         1 JH2      -0.038200
     12 C9           3.0730    -0.3270     0.8780 c3         1 JH2      -0.064400
     13 C10          4.5620    -0.4180     0.7100 cx         1 JH2       0.067100
     14 C11          5.4420     0.6590     0.2440 cx         1 JH2       0.082800
     15 C12          4.9000     2.0110    -0.1610 c3         1 JH2      -0.059400
     16 C13          5.6640     2.6460    -1.3190 c3         1 JH2      -0.086100
     17 C14         -4.1280    -1.3610    -1.7880 c3         1 JH2      -0.069900
     18 C15          0.4510    -1.3300     2.1950 c3         1 JH2      -0.057900
     19 C16          6.8780     0.6580     0.7060 c3         1 JH2      -0.081100
     20 C17         -7.1550     2.0580     0.9780 c3         1 JH2       0.129700
     21 H2          -3.4320     1.2490     0.4210 ha         1 JH2       0.146000
     22 H4          -1.5630    -0.4120    -1.9350 hc         1 JH2       0.055200
     23 H4A         -1.5040     0.4240    -0.3880 hc         1 JH2       0.055200
     24 H5          -1.8250    -1.7690     0.7890 hc         1 JH2       0.049200
     25 H5A         -1.8390    -2.5930    -0.7550 hc         1 JH2       0.049200
     26 H6           0.5050    -1.9810    -1.2180 ha         1 JH2       0.120000
     27 H8           2.8150    -2.4330     1.2370 hc         1 JH2       0.051200
     28 H8A          2.6080    -1.9650    -0.4430 hc         1 JH2       0.051200
     29 H9           2.6420     0.4470     0.2410 hc         1 JH2       0.052200
     30 H9A          2.8810    -0.0250     1.9120 hc         1 JH2       0.052200
     31 H10          5.0210    -1.1590     1.3690 h1         1 JH2       0.076700
     32 H12          3.8480     1.9280    -0.4370 hc         1 JH2       0.048200
     33 H12A         4.9380     2.6700     0.7110 hc         1 JH2       0.048200
     34 H13          5.1830     3.5740    -1.6260 hc         1 JH2       0.036700
     35 H13A         6.6920     2.8880    -1.0500 hc         1 JH2       0.036700
     36 H13B         5.6920     1.9850    -2.1860 hc         1 JH2       0.036700
     37 H14         -4.8330    -0.8850    -2.4680 hc         1 JH2       0.055700
     38 H14A        -3.4100    -1.9210    -2.3850 hc         1 JH2       0.055700
     39 H14B        -4.6960    -2.0760    -1.1930 hc         1 JH2       0.055700
     40 H15          1.0000    -1.9530     2.9050 hc         1 JH2       0.039700
     41 H15A         0.6520    -0.2930     2.4730 hc         1 JH2       0.039700
     42 H15B        -0.6110    -1.5060     2.3510 hc         1 JH2       0.039700
     43 H16          7.5520     0.9720    -0.0930 hc         1 JH2       0.046033
     44 H16A         7.0100     1.3510     1.5380 hc         1 JH2       0.046033
     45 H16B         7.1910    -0.3320     1.0400 hc         1 JH2       0.046033
     46 H17         -7.1760     2.9010     1.6630 h1         1 JH2       0.046033
     47 H17A        -7.6600     2.3360     0.0530 h1         1 JH2       0.046033
     48 H17B        -7.6810     1.2160     1.4290 h1         1 JH2       0.046033
@<TRIPOS>BOND
     1     1     2 1   
     2     1     3 1   
     3     1     4 2   
     4     2    20 1   
     5     3     5 2   
     6     3    21 1   
     7     5     7 1   
     8     5    17 1   
     9     6    13 1   
    10     6    14 1   
    11     7     8 1   
    12     7    22 1   
    13     7    23 1   
    14     8     9 1   
    15     8    24 1   
    16     8    25 1   
    17     9    10 2   
    18     9    26 1   
    19    10    11 1   
    20    10    18 1   
    21    11    12 1   
    22    11    27 1   
    23    11    28 1   
    24    12    13 1   
    25    12    29 1   
    26    12    30 1   
    27    13    14 1   
    28    13    31 1   
    29    14    15 1   
    30    14    19 1   
    31    15    16 1   
    32    15    32 1   
    33    15    33 1   
    34    16    34 1   
    35    16    35 1   
    36    16    36 1   
    37    17    37 1   
    38    17    38 1   
    39    17    39 1   
    40    18    40 1   
    41    18    41 1   
    42    18    42 1   
    43    19    43 1   
    44    19    44 1   
    45    19    45 1   
    46    20    46 1   
    47    20    47 1   
    48    20    48 1   
@<TRIPOS>SUBSTRUCTURE
     1 JH2         1 TEMP              0 ****  ****    0 ROOT
