@<TRIPOS>MOLECULE
JH2
   48    48     1     0     0
SMALL
No Charge or Current Charge


@<TRIPOS>ATOM
      1 C1          -5.6290     0.5850     0.0180 c          1 JH2       0.598300
      2 O1          -5.9950     1.3390     1.1000 os         1 JH2      -0.444100
      3 C2          -4.1510     0.3970    -0.0070 ce         1 JH2      -0.299200
      4 O2          -6.4150     0.1350    -0.8040 o          1 JH2      -0.497000
      5 C3          -3.4290    -0.2920    -0.9260 c2         1 JH2      -0.014400
      6 O3           5.2060    -0.6010    -0.7790 op         1 JH2      -0.442000
      7 C4          -1.9160    -0.4150    -0.8280 c3         1 JH2      -0.055200
      8 C5          -1.4650    -1.7650    -0.2300 c3         1 JH2      -0.035200
      9 C6           0.0440    -1.8550    -0.0950 c2         1 JH2      -0.223200
     10 C7           0.8030    -1.4280     0.9330 c2         1 JH2      -0.109400
     11 C8           2.3130    -1.6190     0.9500 c3         1 JH2      -0.038200
     12 C9           3.0890    -0.3330     0.5850 c3         1 JH2      -0.064400
     13 C10          4.6000    -0.5500     0.5340 cx         1 JH2       0.090300
     14 C11          5.5630     0.5160     0.0670 cx         1 JH2       0.106000
     15 C12          5.0510     1.9040    -0.3550 c3         1 JH2      -0.059400
     16 C13          6.0000     2.6980    -1.2800 c3         1 JH2      -0.086100
     17 C14         -4.0130    -1.0250    -2.1270 c3         1 JH2      -0.069900
     18 C15          0.2750    -0.7360     2.1840 c3         1 JH2      -0.057900
     19 C16          6.9670     0.5030     0.6690 c3         1 JH2      -0.081100
     20 C17         -7.3940     1.6230     1.2860 c3         1 JH2       0.152900
     21 H2          -3.6360     0.8800     0.8200 ha         1 JH2       0.196000
     22 H4          -1.4520    -0.2800    -1.8130 hc         1 JH2       0.055200
     23 H4A         -1.5160     0.3910    -0.2010 hc         1 JH2       0.055200
     24 H5          -1.9530    -1.9080     0.7410 hc         1 JH2       0.049200
     25 H5A         -1.8270    -2.5830    -0.8650 hc         1 JH2       0.049200
     26 H6           0.5210    -2.3420    -0.9480 ha         1 JH2       0.170000
     27 H8           2.6420    -1.9840     1.9310 hc         1 JH2       0.051200
     28 H8A          2.5970    -2.3990     0.2320 hc         1 JH2       0.051200
     29 H9           2.7220     0.0270    -0.3830 hc         1 JH2       0.052200
     30 H9A          2.8650     0.4470     1.3210 hc         1 JH2       0.052200
     31 H10          4.9750    -1.2820     1.2510 h1         1 JH2       0.076700
     32 H12          4.0950     1.8080    -0.8810 hc         1 JH2       0.048200
     33 H12A         4.8480     2.5040     0.5400 hc         1 JH2       0.048200
     34 H13          5.5120     3.6180    -1.6230 hc         1 JH2       0.036700
     35 H13A         6.9200     2.9840    -0.7570 hc         1 JH2       0.036700
     36 H13B         6.2680     2.1050    -2.1630 hc         1 JH2       0.036700
     37 H14         -4.5590    -0.3350    -2.7800 hc         1 JH2       0.055700
     38 H14A        -3.2430    -1.5090    -2.7400 hc         1 JH2       0.055700
     39 H14B        -4.7090    -1.8090    -1.8060 hc         1 JH2       0.055700
     40 H15          0.5070    -1.3200     3.0830 hc         1 JH2       0.039700
     41 H15A         0.7220     0.2560     2.3090 hc         1 JH2       0.039700
     42 H15B        -0.8100    -0.5910     2.1650 hc         1 JH2       0.039700
     43 H16          7.7140     0.8820    -0.0370 hc         1 JH2       0.046033
     44 H16A         7.0080     1.1210     1.5740 hc         1 JH2       0.046033
     45 H16B         7.2720    -0.5130     0.9470 hc         1 JH2       0.046033
     46 H17         -7.5430     2.2320     2.1870 h1         1 JH2       0.046033
     47 H17A        -7.7980     2.1780     0.4290 h1         1 JH2       0.046033
     48 H17B        -7.9690     0.6950     1.4040 h1         1 JH2       0.046033
@<TRIPOS>BOND
     1     1     2 1   
     2     1     3 1   
     3     1     4 2   
     4     2    20 1   
     5     3     5 2   
     6     3    21 1   
     7     5     7 1   
     8     5    17 1   
     9     6    13 1   
    10     6    14 1   
    11     7     8 1   
    12     7    22 1   
    13     7    23 1   
    14     8     9 1   
    15     8    24 1   
    16     8    25 1   
    17     9    10 2   
    18     9    26 1   
    19    10    11 1   
    20    10    18 1   
    21    11    12 1   
    22    11    27 1   
    23    11    28 1   
    24    12    13 1   
    25    12    29 1   
    26    12    30 1   
    27    13    14 1   
    28    13    31 1   
    29    14    15 1   
    30    14    19 1   
    31    15    16 1   
    32    15    32 1   
    33    15    33 1   
    34    16    34 1   
    35    16    35 1   
    36    16    36 1   
    37    17    37 1   
    38    17    38 1   
    39    17    39 1   
    40    18    40 1   
    41    18    41 1   
    42    18    42 1   
    43    19    43 1   
    44    19    44 1   
    45    19    45 1   
    46    20    46 1   
    47    20    47 1   
    48    20    48 1   
@<TRIPOS>SUBSTRUCTURE
     1 JH2         1 TEMP              0 ****  ****    0 ROOT
