@<TRIPOS>MOLECULE
JH3
   45    45     1     0     0
SMALL
abcg2


@<TRIPOS>ATOM
      1 C1           5.2680     0.6040     0.2480 c          1 JH3       0.599300
      2 O2           6.0620    -0.2640     0.5350 o          1 JH3      -0.497000
      3 O1           5.6460     1.8120    -0.1730 os         1 JH3      -0.444100
      4 CM           7.0440     2.0580    -0.2930 c3         1 JH3       0.152900
      5 C2           3.8070     0.5090     0.2970 ce         1 JH3      -0.298200
      6 C3           3.1150    -0.5500     0.7460 c2         1 JH3      -0.014400
      7 C10          3.7160    -1.8130     1.2870 c3         1 JH3      -0.070900
      8 C4           1.6160    -0.5160     0.6980 c3         1 JH3      -0.055200
      9 C5           1.0450    -1.5440    -0.2940 c3         1 JH3      -0.035200
     10 C6          -0.4500    -1.5680    -0.2390 c2         1 JH3      -0.223200
     11 C7          -1.3180    -1.2190    -1.1910 c2         1 JH3      -0.109400
     12 C11         -0.9390    -0.7560    -2.5680 c3         1 JH3      -0.056900
     13 C8          -2.7980    -1.2670    -0.9150 c3         1 JH3      -0.039200
     14 C9          -3.4020     0.1240    -0.6970 c3         1 JH3      -0.063400
     15 CA          -4.8830     0.0570    -0.4540 cx         1 JH3       0.091300
     16 O3          -5.3290    -0.3710     0.8310 op         1 JH3      -0.442000
     17 CB          -5.6400     0.9600     0.4170 cx         1 JH3       0.106000
     18 C12         -7.0970     1.2030     0.1210 c3         1 JH3      -0.080100
     19 CC          -4.9740     2.0700     1.1880 c3         1 JH3      -0.080100
     20 HM           7.1390     3.0830    -0.6410 h1         1 JH3       0.046033
     21 HMA          7.5550     1.9560     0.6650 h1         1 JH3       0.046033
     22 HMB          7.5080     1.3890    -1.0170 h1         1 JH3       0.046033
     23 H2           3.2610     1.3710    -0.0670 ha         1 JH3       0.196000
     24 H3           4.5080    -1.6160     2.0060 hc         1 JH3       0.056033
     25 H3'A         2.9550    -2.4220     1.7730 hc         1 JH3       0.056033
     26 H3'B         4.1570    -2.4110     0.4880 hc         1 JH3       0.056033
     27 H4           1.2270    -0.7370     1.6980 hc         1 JH3       0.054700
     28 H4A          1.2620     0.4790     0.4230 hc         1 JH3       0.054700
     29 H5           1.4140    -1.3150    -1.2950 hc         1 JH3       0.049700
     30 H5A          1.4280    -2.5380    -0.0420 hc         1 JH3       0.049700
     31 H6          -0.8580    -1.8950     0.7150 ha         1 JH3       0.169000
     32 H7          -1.2900    -1.4710    -3.3170 hc         1 JH3       0.040033
     33 H7'A        -1.4100     0.1980    -2.8100 hc         1 JH3       0.040033
     34 H7'B         0.1340    -0.6340    -2.7050 hc         1 JH3       0.040033
     35 H8          -3.3140    -1.7540    -1.7510 hc         1 JH3       0.050700
     36 H8A         -2.9880    -1.8780    -0.0290 hc         1 JH3       0.050700
     37 H9          -2.8850     0.6090     0.1330 hc         1 JH3       0.052200
     38 H9A         -3.2400     0.7500    -1.5780 hc         1 JH3       0.052200
     39 HA          -5.4370    -0.3920    -1.2810 h1         1 JH3       0.076700
     40 HB          -7.5330     0.3920    -0.4630 hc         1 JH3       0.046533
     41 HB'A        -7.6710     1.3040     1.0440 hc         1 JH3       0.046533
     42 HB'B        -7.2200     2.1280    -0.4450 hc         1 JH3       0.046533
     43 HC          -4.9400     2.9780     0.5830 hc         1 JH3       0.046533
     44 HCA         -5.5400     2.3000     2.0920 hc         1 JH3       0.046533
     45 HCB         -3.9550     1.8280     1.4860 hc         1 JH3       0.046533
@<TRIPOS>BOND
     1     1     2 2   
     2     1     3 1   
     3     1     5 1   
     4     3     4 1   
     5     4    20 1   
     6     4    21 1   
     7     4    22 1   
     8     5     6 2   
     9     5    23 1   
    10     6     7 1   
    11     6     8 1   
    12     7    24 1   
    13     7    25 1   
    14     7    26 1   
    15     8     9 1   
    16     8    27 1   
    17     8    28 1   
    18     9    10 1   
    19     9    29 1   
    20     9    30 1   
    21    10    11 2   
    22    10    31 1   
    23    11    12 1   
    24    11    13 1   
    25    12    32 1   
    26    12    33 1   
    27    12    34 1   
    28    13    14 1   
    29    13    35 1   
    30    13    36 1   
    31    14    15 1   
    32    14    37 1   
    33    14    38 1   
    34    15    16 1   
    35    15    17 1   
    36    15    39 1   
    37    16    17 1   
    38    17    18 1   
    39    17    19 1   
    40    18    40 1   
    41    18    41 1   
    42    18    42 1   
    43    19    43 1   
    44    19    44 1   
    45    19    45 1   
@<TRIPOS>SUBSTRUCTURE
     1 JH3         1 TEMP              0 ****  ****    0 ROOT
