@<TRIPOS>MOLECULE
JH3
   45    45     1     0     0
SMALL
No Charge or Current Charge


@<TRIPOS>ATOM
      1 C1           5.3330     0.4800     0.0930 c          1 JH3       0.599300
      2 O2           6.1150    -0.2110     0.7310 o          1 JH3      -0.497000
      3 O1           5.7100     1.4950    -0.7440 os         1 JH3      -0.444100
      4 CM           7.1160     1.7690    -0.8860 c3         1 JH3       0.152900
      5 C2           3.8490     0.3450     0.1090 ce         1 JH3      -0.298200
      6 C3           3.1160    -0.5490     0.8190 c2         1 JH3      -0.014400
      7 C10          3.6910    -1.6110     1.7460 c3         1 JH3      -0.070900
      8 C4           1.5970    -0.5850     0.7360 c3         1 JH3      -0.055200
      9 C5           1.0790    -1.6940    -0.2030 c3         1 JH3      -0.035200
     10 C6          -0.4360    -1.6900    -0.3130 c2         1 JH3      -0.223200
     11 C7          -1.1960    -0.9640    -1.1560 c2         1 JH3      -0.109400
     12 C11         -0.6630     0.0330    -2.1770 c3         1 JH3      -0.056900
     13 C8          -2.7130    -1.0890    -1.1800 c3         1 JH3      -0.039200
     14 C9          -3.4260     0.0670    -0.4450 c3         1 JH3      -0.063400
     15 CA          -4.9440    -0.1010    -0.4130 cx         1 JH3       0.091300
     16 O3          -5.5230    -0.5590     0.8310 op         1 JH3      -0.442000
     17 CB          -5.8320     0.7920     0.4180 cx         1 JH3       0.106000
     18 C12         -7.2550     1.0550    -0.0640 c3         1 JH3      -0.080100
     19 CC          -5.2440     1.9210     1.2630 c3         1 JH3      -0.080100
     20 HM           7.2750     2.6020    -1.5830 h1         1 JH3       0.046033
     21 HMA          7.5600     2.0450     0.0800 h1         1 JH3       0.046033
     22 HMB          7.6490     0.8930    -1.2770 h1         1 JH3       0.046033
     23 H2           3.3400     1.0600    -0.5330 ha         1 JH3       0.196000
     24 H3           4.2790    -1.1530     2.5500 hc         1 JH3       0.056033
     25 H3'A         2.9130    -2.2200     2.2230 hc         1 JH3       0.056033
     26 H3'B         4.3460    -2.2970     1.1970 hc         1 JH3       0.056033
     27 H4           1.1590    -0.7170     1.7330 hc         1 JH3       0.054700
     28 H4A          1.2210     0.3790     0.3730 hc         1 JH3       0.054700
     29 H5           1.5410    -1.5750    -1.1900 hc         1 JH3       0.049700
     30 H5A          1.4170    -2.6710     0.1640 hc         1 JH3       0.049700
     31 H6          -0.9160    -2.3800     0.3830 ha         1 JH3       0.169000
     32 H7          -0.9360    -0.2650    -3.1960 hc         1 JH3       0.040033
     33 H7'A        -1.0700     1.0360    -2.0050 hc         1 JH3       0.040033
     34 H7'B         0.4280     0.1290    -2.1510 hc         1 JH3       0.040033
     35 H8          -3.0750    -1.1510    -2.2140 hc         1 JH3       0.050700
     36 H8A         -3.0140    -2.0300    -0.7010 hc         1 JH3       0.050700
     37 H9          -3.0280     0.1310     0.5750 hc         1 JH3       0.052200
     38 H9A         -3.1840     1.0150    -0.9390 hc         1 JH3       0.052200
     39 HA          -5.3730    -0.5330    -1.3180 h1         1 JH3       0.076700
     40 HB          -7.7080     0.1490    -0.4850 hc         1 JH3       0.046533
     41 HB'A        -7.8960     1.3980     0.7560 hc         1 JH3       0.046533
     42 HB'B        -7.2630     1.8270    -0.8430 hc         1 JH3       0.046533
     43 HC          -4.8870     2.7370     0.6230 hc         1 JH3       0.046533
     44 HCA         -5.9930     2.3380     1.9460 hc         1 JH3       0.046533
     45 HCB         -4.4020     1.5750     1.8730 hc         1 JH3       0.046533
@<TRIPOS>BOND
     1     1     2 2   
     2     1     3 1   
     3     1     5 1   
     4     3     4 1   
     5     4    20 1   
     6     4    21 1   
     7     4    22 1   
     8     5     6 2   
     9     5    23 1   
    10     6     7 1   
    11     6     8 1   
    12     7    24 1   
    13     7    25 1   
    14     7    26 1   
    15     8     9 1   
    16     8    27 1   
    17     8    28 1   
    18     9    10 1   
    19     9    29 1   
    20     9    30 1   
    21    10    11 2   
    22    10    31 1   
    23    11    12 1   
    24    11    13 1   
    25    12    32 1   
    26    12    33 1   
    27    12    34 1   
    28    13    14 1   
    29    13    35 1   
    30    13    36 1   
    31    14    15 1   
    32    14    37 1   
    33    14    38 1   
    34    15    16 1   
    35    15    17 1   
    36    15    39 1   
    37    16    17 1   
    38    17    18 1   
    39    17    19 1   
    40    18    40 1   
    41    18    41 1   
    42    18    42 1   
    43    19    43 1   
    44    19    44 1   
    45    19    45 1   
@<TRIPOS>SUBSTRUCTURE
     1 JH3         1 TEMP              0 ****  ****    0 ROOT
