@<TRIPOS>MOLECULE
JH4
   15    15     1     0     0
SMALL
abcg2


@<TRIPOS>ATOM
      1 C01          2.7880     0.4120     0.0240 c3         1 JH4       0.234100
      2 N02          1.7260    -0.5600     0.0230 nu         1 JH4      -0.928100
      3 C03          0.4220    -0.2420     0.0180 ca         1 JH4       0.379900
      4 N04          0.0980     1.0560     0.0290 nb         1 JH4      -0.248500
      5 C05         -1.1960     1.3390     0.0250 ca         1 JH4       0.153400
      6 C06         -2.1830     0.3690     0.0120 ca         1 JH4      -0.294000
      7 C07         -1.7290    -0.9440     0.0020 ca         1 JH4       0.153400
      8 N08         -0.4500    -1.2640     0.0050 nb         1 JH4      -0.248500
      9 H011         3.7360    -0.1200     0.0340 h1         1 JH4       0.040367
     10 H012         2.7640     1.0480    -0.8630 h1         1 JH4       0.040367
     11 H013         2.7500     1.0580     0.9020 h1         1 JH4       0.040367
     12 H021         1.9580    -1.5380     0.0030 hn         1 JH4       0.508000
     13 H051        -1.4560     2.3930     0.0340 h4         1 JH4       0.018100
     14 H061        -3.2340     0.6140     0.0090 ha         1 JH4       0.134000
     15 H071        -2.4330    -1.7700    -0.0090 h4         1 JH4       0.018100
@<TRIPOS>BOND
     1     1     2 1   
     2     1     9 1   
     3     1    10 1   
     4     1    11 1   
     5     2     3 1   
     6     2    12 1   
     7     3     4 ar  
     8     3     8 ar  
     9     4     5 ar  
    10     5     6 ar  
    11     5    13 1   
    12     6     7 ar  
    13     6    14 1   
    14     7     8 ar  
    15     7    15 1   
@<TRIPOS>SUBSTRUCTURE
     1 JH4         1 TEMP              0 ****  ****    0 ROOT
