@<TRIPOS>MOLECULE
JH4
   15    15     1     0     0
SMALL
No Charge or Current Charge


@<TRIPOS>ATOM
      1 C01          2.8840     0.3980     0.0250 c3         1 JH4       0.234100
      2 N02          1.7390    -0.5340     0.0160 nu         1 JH4      -0.928100
      3 C03          0.3900    -0.2100     0.0150 ca         1 JH4       0.379900
      4 N04          0.0560     1.0950     0.0230 nb         1 JH4      -0.248500
      5 C05         -1.2620     1.3780     0.0220 ca         1 JH4       0.153400
      6 C06         -2.2270     0.3580     0.0120 ca         1 JH4      -0.294000
      7 C07         -1.7700    -0.9700     0.0040 ca         1 JH4       0.153400
      8 N08         -0.4530    -1.2580     0.0050 nb         1 JH4      -0.248500
      9 H011         3.8320    -0.1570     0.0240 h1         1 JH4       0.040367
     10 H012         2.8610     1.0460    -0.8620 h1         1 JH4       0.040367
     11 H013         2.8570     1.0330     0.9210 h1         1 JH4       0.040367
     12 H021         1.9470    -1.5350     0.0090 hn         1 JH4       0.508000
     13 H051        -1.5430     2.4300     0.0280 h4         1 JH4       0.018100
     14 H061        -3.2890     0.5880     0.0110 ha         1 JH4       0.134000
     15 H071        -2.4610    -1.8110    -0.0040 h4         1 JH4       0.018100
@<TRIPOS>BOND
     1     1     2 1   
     2     1     9 1   
     3     1    10 1   
     4     1    11 1   
     5     2     3 1   
     6     2    12 1   
     7     3     4 ar  
     8     3     8 ar  
     9     4     5 ar  
    10     5     6 ar  
    11     5    13 1   
    12     6     7 ar  
    13     6    14 1   
    14     7     8 ar  
    15     7    15 1   
@<TRIPOS>SUBSTRUCTURE
     1 JH4         1 TEMP              0 ****  ****    0 ROOT
