@<TRIPOS>MOLECULE
JH5
   37    39     1     0     0
SMALL
abcg2


@<TRIPOS>ATOM
      1 C2          -2.6570     0.6310    -0.6140 c3         1 JH5       0.190100
      2 C4           4.8470     0.5210    -0.6050 ca         1 JH5      -0.076000
      3 C5           3.9160     0.4860     0.4270 ca         1 JH5      -0.163300
      4 CAA          5.8270    -0.4580    -0.6960 ca         1 JH5      -0.102500
      5 CAB          5.8770    -1.4790     0.2420 ca         1 JH5      -0.064000
      6 CAC          4.9500    -1.5180     1.2760 ca         1 JH5      -0.102500
      7 CAD          3.9730    -0.5370     1.3690 ca         1 JH5      -0.076000
      8 CAK         -4.3470    -0.0750     1.1090 ca         1 JH5      -0.084500
      9 CAL         -5.5820    -0.6000     1.4590 ca         1 JH5      -0.102500
     10 CAM         -6.4820    -0.9850     0.4710 ca         1 JH5      -0.074000
     11 CAN         -6.1410    -0.8440    -0.8660 ca         1 JH5      -0.102500
     12 CAO         -4.9000    -0.3230    -1.2140 ca         1 JH5      -0.084500
     13 CAP         -3.9970     0.0690    -0.2320 ca         1 JH5      -0.137300
     14 CAQ          0.3080     0.3040    -1.5560 cc         1 JH5       0.406400
     15 NAQ         -0.3410     0.2080    -0.3600 na         1 JH5      -0.019700
     16 CAR          0.4960     0.6680     0.5670 cc         1 JH5      -0.012300
     17 NAS          1.5890     1.0180    -0.0640 na         1 JH5       0.173800
     18 NAT          1.4930     0.7910    -1.3830 n2         1 JH5      -0.434800
     19 C3           2.8340     1.5250     0.5100 c3         1 JH5       0.137900
     20 N4          -1.6120    -0.2490    -0.0800 nu         1 JH5      -0.681700
     21 H21C        -2.5930     0.7410    -1.7010 h1         1 JH5       0.064700
     22 H22C        -2.5130     1.6190    -0.1730 h1         1 JH5       0.064700
     23 H4          -1.6950    -1.1930    -0.4390 hn         1 JH5       0.469000
     24 HAA          6.5490    -0.4220    -1.5010 ha         1 JH5       0.134500
     25 HAD          3.2560    -0.5710     2.1810 ha         1 JH5       0.116000
     26 H31C         2.6140     1.8050     1.5380 h1         1 JH5       0.096700
     27 H32C         3.0930     2.4290    -0.0370 h1         1 JH5       0.096700
     28 HAB          6.6400    -2.2430     0.1710 ha         1 JH5       0.135000
     29 HAC          4.9890    -2.3090     2.0120 ha         1 JH5       0.134500
     30 HAK         -3.6500     0.2240     1.8830 ha         1 JH5       0.114000
     31 HAL         -5.8450    -0.7070     2.5030 ha         1 JH5       0.131000
     32 HAM         -7.4460    -1.3950     0.7470 ha         1 JH5       0.132000
     33 HAN         -6.8360    -1.1420    -1.6400 ha         1 JH5       0.131000
     34 HAO         -4.6330    -0.2200    -2.2590 ha         1 JH5       0.114000
     35 HAQ         -0.1190     0.0040    -2.4990 h5         1 JH5       0.114100
     36 HAR          0.2970     0.7340     1.6240 h5         1 JH5       0.246000
     37 HA           4.8090     1.3170    -1.3390 ha         1 JH5       0.116000
@<TRIPOS>BOND
     1     1    13 1   
     2     1    20 1   
     3     1    21 1   
     4     1    22 1   
     5     2     3 ar  
     6     2     4 ar  
     7     2    37 1   
     8     3     7 ar  
     9     3    19 1   
    10     4     5 ar  
    11     4    24 1   
    12     5     6 ar  
    13     5    28 1   
    14     6     7 ar  
    15     6    29 1   
    16     7    25 1   
    17     8     9 ar  
    18     8    13 ar  
    19     8    30 1   
    20     9    10 ar  
    21     9    31 1   
    22    10    11 ar  
    23    10    32 1   
    24    11    12 ar  
    25    11    33 1   
    26    12    13 ar  
    27    12    34 1   
    28    14    15 1   
    29    14    18 2   
    30    14    35 1   
    31    15    16 2   
    32    15    20 1   
    33    16    17 1   
    34    16    36 1   
    35    17    18 1   
    36    17    19 1   
    37    19    26 1   
    38    19    27 1   
    39    20    23 1   
@<TRIPOS>SUBSTRUCTURE
     1 JH5         1 TEMP              0 ****  ****    0 ROOT
