@<TRIPOS>MOLECULE
JH5
   37    39     1     0     0
SMALL
No Charge or Current Charge


@<TRIPOS>ATOM
      1 C2          -2.8150     0.4780     1.8090 c3         1 JH5       0.190100
      2 C4           3.6620    -1.0910    -0.5380 ca         1 JH5      -0.076000
      3 C5           3.5530     0.3100    -0.4070 ca         1 JH5      -0.163300
      4 CAA          4.7980    -1.7620    -0.0550 ca         1 JH5      -0.102500
      5 CAB          5.8350    -1.0400     0.5610 ca         1 JH5      -0.064000
      6 CAC          5.7350     0.3550     0.6900 ca         1 JH5      -0.102500
      7 CAD          4.5990     1.0290     0.2070 ca         1 JH5      -0.076000
      8 CAK         -4.4970    -0.9920     0.5920 ca         1 JH5      -0.084500
      9 CAL         -5.3170    -1.2750    -0.5140 ca         1 JH5      -0.102500
     10 CAM         -5.3610    -0.3880    -1.6030 ca         1 JH5      -0.074000
     11 CAN         -4.5830     0.7830    -1.5840 ca         1 JH5      -0.102500
     12 CAO         -3.7630     1.0660    -0.4780 ca         1 JH5      -0.084500
     13 CAP         -3.7140     0.1790     0.6160 ca         1 JH5      -0.137300
     14 CAQ         -0.7850    -0.5860    -0.6000 cc         1 JH5       0.406400
     15 NAQ         -0.6910    -0.1540     0.7200 na         1 JH5      -0.019700
     16 CAR          0.5000     0.5340     0.8010 cc         1 JH5      -0.012300
     17 NAS          1.0450     0.4720    -0.4660 na         1 JH5       0.173800
     18 NAT          0.2300    -0.2280    -1.3280 n2         1 JH5      -0.434800
     19 C3           2.3190     1.0460    -0.9320 c3         1 JH5       0.137900
     20 N4          -1.6060    -0.3600     1.7750 nu         1 JH5      -0.681700
     21 H21C        -2.5350     1.5410     1.8070 h1         1 JH5       0.064700
     22 H22C        -3.3720     0.2920     2.7370 h1         1 JH5       0.064700
     23 H4          -1.6210    -1.2980     2.1890 hn         1 JH5       0.469000
     24 HAA          4.8760    -2.8420    -0.1580 ha         1 JH5       0.134500
     25 HAD          4.5360     2.1100     0.3130 ha         1 JH5       0.116000
     26 H31C         2.3490     2.0980    -0.6240 h1         1 JH5       0.096700
     27 H32C         2.3300     1.0290    -2.0290 h1         1 JH5       0.096700
     28 HAB          6.7150    -1.5610     0.9340 ha         1 JH5       0.135000
     29 HAC          6.5380     0.9160     1.1640 ha         1 JH5       0.134500
     30 HAK         -4.4670    -1.6860     1.4300 ha         1 JH5       0.114000
     31 HAL         -5.9190    -2.1810    -0.5270 ha         1 JH5       0.131000
     32 HAM         -5.9960    -0.6060    -2.4590 ha         1 JH5       0.132000
     33 HAN         -4.6160     1.4710    -2.4270 ha         1 JH5       0.131000
     34 HAO         -3.1620     1.9740    -0.4750 ha         1 JH5       0.114000
     35 HAQ         -1.6270    -1.1590    -0.9660 h5         1 JH5       0.114100
     36 HAR          0.9250     1.0140     1.6730 h5         1 JH5       0.246000
     37 HA           2.8690    -1.6620    -1.0170 ha         1 JH5       0.116000
@<TRIPOS>BOND
     1     1    13 1   
     2     1    20 1   
     3     1    21 1   
     4     1    22 1   
     5     2     3 ar  
     6     2     4 ar  
     7     2    37 1   
     8     3     7 ar  
     9     3    19 1   
    10     4     5 ar  
    11     4    24 1   
    12     5     6 ar  
    13     5    28 1   
    14     6     7 ar  
    15     6    29 1   
    16     7    25 1   
    17     8     9 ar  
    18     8    13 ar  
    19     8    30 1   
    20     9    10 ar  
    21     9    31 1   
    22    10    11 ar  
    23    10    32 1   
    24    11    12 ar  
    25    11    33 1   
    26    12    13 ar  
    27    12    34 1   
    28    14    15 1   
    29    14    18 2   
    30    14    35 1   
    31    15    16 2   
    32    15    20 1   
    33    16    17 1   
    34    16    36 1   
    35    17    18 1   
    36    17    19 1   
    37    19    26 1   
    38    19    27 1   
    39    20    23 1   
@<TRIPOS>SUBSTRUCTURE
     1 JH5         1 TEMP              0 ****  ****    0 ROOT
