@<TRIPOS>MOLECULE
JH6
   39    42     1     0     0
SMALL
No Charge or Current Charge


@<TRIPOS>ATOM
      1 N3          12.7680    37.4200   -13.5770 nu         1 JH6      -0.887800
      2 C5          15.2110    35.7340   -15.7910 ca         1 JH6      -0.007000
      3 C6          14.7510    34.4000   -15.6020 cp         1 JH6      -0.133000
      4 C7          11.7270    37.5050   -12.7060 ca         1 JH6       0.604900
      5 N12         15.1470    31.2060   -17.6340 nb         1 JH6      -0.663000
      6 C13         10.4890    39.0860   -11.5920 ca         1 JH6       0.393300
      7 C15         16.2820    36.0430   -16.6580 ca         1 JH6      -0.075000
      8 C17          9.9580    36.7470   -11.2460 ca         1 JH6      -0.052000
      9 C20         16.7590    32.9120   -16.0600 ca         1 JH6      -0.069000
     10 C21          9.7020    38.0990   -10.9720 ca         1 JH6      -0.199000
     11 C22         10.2560    40.5600   -11.3220 c3         1 JH6      -0.146400
     12 C24         17.2980    31.7700   -16.6740 ca         1 JH6      -0.164000
     13 C1          13.4550    36.4410   -14.2670 ca         1 JH6       0.665900
     14 C2          14.5610    36.7980   -15.1070 ca         1 JH6       0.177000
     15 N4          12.9970    35.1940   -14.0970 nb         1 JH6      -0.755000
     16 N8          11.4920    38.7910   -12.4470 nb         1 JH6      -0.743000
     17 C9          13.6350    34.2050   -14.7530 ca         1 JH6       0.401900
     18 N10         14.9670    38.1010   -15.2520 nb         1 JH6      -0.661000
     19 C11         15.3900    33.2120   -16.2490 cp         1 JH6      -0.074000
     20 C14         14.6320    32.3090   -17.0410 ca         1 JH6       0.343900
     21 C16         10.9990    36.4450   -12.1360 ca         1 JH6      -0.181000
     22 C18         16.0050    38.3740   -16.0740 ca         1 JH6       0.342900
     23 C19         16.4620    30.9490   -17.4500 ca         1 JH6       0.335900
     24 C23         16.6820    37.3810   -16.7940 ca         1 JH6      -0.142000
     25 H1          13.1340    38.3410   -13.7850 hn         1 JH6       0.538000
     26 H3           9.3690    35.9580   -10.7810 ha         1 JH6       0.118000
     27 H4          17.3870    33.5530   -15.4440 ha         1 JH6       0.122000
     28 H5           8.9070    38.3810   -10.2870 ha         1 JH6       0.124000
     29 H6          10.3390    41.1510   -12.2410 hc         1 JH6       0.051033
     30 H7           9.2570    40.7350   -10.9060 hc         1 JH6       0.051033
     31 H8          10.9900    40.9440   -10.6050 hc         1 JH6       0.051033
     32 H9          18.3460    31.5150   -16.5500 ha         1 JH6       0.125000
     33 H10         13.2470    33.2010   -14.5850 h4         1 JH6       0.023100
     34 H11         13.5690    32.4870   -17.2060 h4         1 JH6       0.023100
     35 H12         11.2270    35.4120   -12.3640 ha         1 JH6       0.158000
     36 H13         16.2950    39.4210   -16.1620 h4         1 JH6       0.026100
     37 H14         16.8560    30.0570   -17.9350 h4         1 JH6       0.020100
     38 H15         17.5030    37.6520   -17.4520 ha         1 JH6       0.128000
     39 H2          16.7950    35.2740   -17.2300 ha         1 JH6       0.130000
@<TRIPOS>BOND
     1     1     4 1   
     2     1    13 1   
     3     1    25 1   
     4     2     3 ar  
     5     2     7 ar  
     6     2    14 ar  
     7     3    17 ar  
     8     3    19 1   
     9     4    16 ar  
    10     4    21 ar  
    11     5    20 ar  
    12     5    23 ar  
    13     6    10 ar  
    14     6    11 1   
    15     6    16 ar  
    16     7    24 ar  
    17     7    39 1   
    18     8    10 ar  
    19     8    21 ar  
    20     8    26 1   
    21     9    12 ar  
    22     9    19 ar  
    23     9    27 1   
    24    10    28 1   
    25    11    29 1   
    26    11    30 1   
    27    11    31 1   
    28    12    23 ar  
    29    12    32 1   
    30    13    14 ar  
    31    13    15 ar  
    32    14    18 ar  
    33    15    17 ar  
    34    17    33 1   
    35    18    22 ar  
    36    19    20 ar  
    37    20    34 1   
    38    21    35 1   
    39    22    24 ar  
    40    22    36 1   
    41    23    37 1   
    42    24    38 1   
@<TRIPOS>SUBSTRUCTURE
     1 JH6         1 TEMP              0 ****  ****    0 ROOT
