@<TRIPOS>MOLECULE
JH6
   39    42     1     0     0
SMALL
bcc


@<TRIPOS>ATOM
      1 N3          12.8150    37.5130   -13.7060 nu         1 JH6      -0.832600
      2 C5          15.1850    35.7090   -15.8270 ca         1 JH6      -0.072300
      3 C6          14.7450    34.3760   -15.5740 cp         1 JH6      -0.198300
      4 C7          11.7610    37.5860   -12.8140 ca         1 JH6       0.670200
      5 N12         15.1660    31.1740   -17.4420 nb         1 JH6      -0.663000
      6 C13         10.5580    39.0710   -11.5320 ca         1 JH6       0.458600
      7 C15         16.2270    36.0640   -16.7100 ca         1 JH6      -0.093000
      8 C17          9.9650    36.7640   -11.4990 ca         1 JH6      -0.070000
      9 C20         16.7580    32.9410   -16.0120 ca         1 JH6      -0.087000
     10 C21          9.7380    38.0540   -11.0500 ca         1 JH6      -0.282300
     11 C22         10.3780    40.4870   -11.0730 c3         1 JH6      -0.146400
     12 C24         17.3010    31.8010   -16.5800 ca         1 JH6      -0.247300
     13 C1          13.4130    36.4570   -14.3150 ca         1 JH6       0.665900
     14 C2          14.5210    36.7700   -15.1840 ca         1 JH6       0.242300
     15 N4          13.0100    35.2280   -14.1280 nb         1 JH6      -0.755000
     16 N8          11.5380    38.8310   -12.3930 nb         1 JH6      -0.743000
     17 C9          13.6680    34.2260   -14.7420 ca         1 JH6       0.467200
     18 N10         14.8490    38.0610   -15.3500 nb         1 JH6      -0.661000
     19 C11         15.3970    33.1990   -16.1710 cp         1 JH6      -0.139300
     20 C14         14.6560    32.2720   -16.9030 ca         1 JH6       0.409200
     21 C16         10.9910    36.5010   -12.3910 ca         1 JH6      -0.264300
     22 C18         15.8310    38.3580   -16.1610 ca         1 JH6       0.408200
     23 C19         16.4640    30.9470   -17.2830 ca         1 JH6       0.401200
     24 C23         16.5500    37.3830   -16.8740 ca         1 JH6      -0.225300
     25 H1          13.2290    38.4100   -13.9260 hn         1 JH6       0.482800
     26 H3           9.3450    35.9490   -11.1480 ha         1 JH6       0.136000
     27 H4          17.3810    33.6180   -15.4410 ha         1 JH6       0.140000
     28 H5           8.9410    38.2730   -10.3530 ha         1 JH6       0.142000
     29 H6          10.9010    41.1790   -11.7300 hc         1 JH6       0.051033
     30 H7           9.3240    40.7630   -11.0390 hc         1 JH6       0.051033
     31 H8          10.7760    40.6180   -10.0650 hc         1 JH6       0.051033
     32 H9          18.3520    31.5710   -16.4720 ha         1 JH6       0.143000
     33 H10         13.2980    33.2300   -14.5200 h4         1 JH6       0.023100
     34 H11         13.5950    32.4400   -17.0590 h4         1 JH6       0.023100
     35 H12         11.1830    35.5040   -12.7500 ha         1 JH6       0.176000
     36 H13         16.0770    39.4070   -16.2750 h4         1 JH6       0.026100
     37 H14         16.8590    30.0430   -17.7350 h4         1 JH6       0.020100
     38 H15         17.3440    37.6840   -17.5440 ha         1 JH6       0.146000
     39 H2          16.7580    35.3030   -17.2650 ha         1 JH6       0.148000
@<TRIPOS>BOND
     1     1     4 1   
     2     1    13 1   
     3     1    25 1   
     4     2     3 ar  
     5     2     7 ar  
     6     2    14 ar  
     7     3    17 ar  
     8     3    19 1   
     9     4    16 ar  
    10     4    21 ar  
    11     5    20 ar  
    12     5    23 ar  
    13     6    10 ar  
    14     6    11 1   
    15     6    16 ar  
    16     7    24 ar  
    17     7    39 1   
    18     8    10 ar  
    19     8    21 ar  
    20     8    26 1   
    21     9    12 ar  
    22     9    19 ar  
    23     9    27 1   
    24    10    28 1   
    25    11    29 1   
    26    11    30 1   
    27    11    31 1   
    28    12    23 ar  
    29    12    32 1   
    30    13    14 ar  
    31    13    15 ar  
    32    14    18 ar  
    33    15    17 ar  
    34    17    33 1   
    35    18    22 ar  
    36    19    20 ar  
    37    20    34 1   
    38    21    35 1   
    39    22    24 ar  
    40    22    36 1   
    41    23    37 1   
    42    24    38 1   
@<TRIPOS>SUBSTRUCTURE
     1 JH6         1 TEMP              0 ****  ****    0 ROOT
