@<TRIPOS>MOLECULE
JH8
   47    50     1     0     0
SMALL
No Charge or Current Charge


@<TRIPOS>ATOM
      1 C4          -6.1500     0.4670     0.0670 ca         1 JH8      -0.100000
      2 C5          -6.3450     1.7200     0.6800 ca         1 JH8       0.359900
      3 C7          -4.6440    -1.2710    -0.7320 ca         1 JH8      -0.102000
      4 C8          -7.2530    -0.2790    -0.3940 ca         1 JH8      -0.084000
      5 C10         -5.7460    -2.0120    -1.1930 ca         1 JH8      -0.095000
      6 C13         -0.0080     0.7540    -0.3610 ca         1 JH8      -0.112000
      7 C15         -0.5420    -1.2710     0.8620 ca         1 JH8      -0.112000
      8 C17          1.8210    -0.8910     0.1740 cc         1 JH8      -0.158000
      9 C21          2.4320    -2.0470     0.6890 cc         1 JH8       0.264900
     10 C26          8.0920     1.8770     0.4720 c3         1 JH8       0.084300
     11 C1          -4.0720     2.0100     0.9860 ca         1 JH8       0.329900
     12 C11         -2.3250     0.3270     0.3260 cp         1 JH8      -0.047000
     13 C12         -1.3580     1.1420    -0.3040 ca         1 JH8      -0.092500
     14 C14          0.4170    -0.4610     0.2200 ca         1 JH8       0.029000
     15 C16         -1.8910    -0.8810     0.9180 ca         1 JH8      -0.092500
     16 C18          2.8110    -0.1690    -0.4290 cd         1 JH8      -0.135000
     17 C2          -3.7540     0.7580     0.4000 cp         1 JH8      -0.066000
     18 C23          6.0290     0.4940     0.0890 c          1 JH8       0.587100
     19 C27          8.0400     0.1840    -1.4200 c3         1 JH8       0.084300
     20 C3          -4.8360    -0.0290    -0.0860 ca         1 JH8       0.001000
     21 C9          -7.0500    -1.5190    -1.0200 ca         1 JH8      -0.112000
     22 N19          3.9680    -0.9320    -0.2340 na         1 JH8       0.141800
     23 N20          3.7280    -2.1130     0.4580 nd         1 JH8      -0.517800
     24 N24          7.3560     0.8310    -0.2750 n          1 JH8      -0.410800
     25 N6          -5.3290     2.4890     1.1310 nb         1 JH8      -0.663000
     26 O25          5.4810     1.0730     1.0210 o          1 JH8      -0.572100
     27 H1          -7.3470     2.1270     0.8090 h4         1 JH8       0.018100
     28 H2          -3.6460    -1.6680    -0.8940 ha         1 JH8       0.126000
     29 H3          -8.2650     0.1030    -0.2720 ha         1 JH8       0.116000
     30 H4          -5.5890    -2.9680    -1.6870 ha         1 JH8       0.114000
     31 H5           0.6970     1.4100    -0.8610 ha         1 JH8       0.112000
     32 H6          -0.2480    -2.2080     1.3250 ha         1 JH8       0.112000
     33 H7           1.9630    -2.8570     1.2310 h4         1 JH8       0.038100
     34 H8           5.2460    -0.2750    -1.7600 h1         1 JH8       0.082200
     35 H9           5.9370    -1.5090    -0.6850 h1         1 JH8       0.082200
     36 H10          7.6100     2.8500     0.3170 h1         1 JH8       0.044033
     37 H11          8.0860     1.6410     1.5440 h1         1 JH8       0.044033
     38 H12          9.1350     1.9400     0.1350 h1         1 JH8       0.044033
     39 H13         -3.2760     2.6480     1.3700 h4         1 JH8       0.022100
     40 H14         -1.6610     2.0830    -0.7590 ha         1 JH8       0.116000
     41 H15         -2.6090    -1.5180     1.4290 ha         1 JH8       0.116000
     42 H16          2.8100     0.7780    -0.9550 h4         1 JH8       0.154000
     43 H17          8.1540    -0.8910    -1.2270 h1         1 JH8       0.044033
     44 H18          7.4560     0.3290    -2.3370 h1         1 JH8       0.044033
     45 H19          9.0370     0.6170    -1.5730 h1         1 JH8       0.044033
     46 H20         -7.9010    -2.0940    -1.3780 ha         1 JH8       0.116000
     47 C22          5.3170    -0.6060    -0.7180 c3         1 JH8       0.000600
@<TRIPOS>BOND
     1     1     2 ar  
     2     1     4 ar  
     3     1    20 ar  
     4     2    25 ar  
     5     2    27 1   
     6     3     5 ar  
     7     3    20 ar  
     8     3    28 1   
     9     4    21 ar  
    10     4    29 1   
    11     5    21 ar  
    12     5    30 1   
    13     6    13 ar  
    14     6    14 ar  
    15     6    31 1   
    16     7    14 ar  
    17     7    15 ar  
    18     7    32 1   
    19     8     9 1   
    20     8    14 1   
    21     8    16 2   
    22     9    23 2   
    23     9    33 1   
    24    10    24 1   
    25    10    36 1   
    26    10    37 1   
    27    10    38 1   
    28    11    17 ar  
    29    11    25 ar  
    30    11    39 1   
    31    12    13 ar  
    32    12    15 ar  
    33    12    17 1   
    34    13    40 1   
    35    15    41 1   
    36    16    22 1   
    37    16    42 1   
    38    17    20 ar  
    39    18    24 1   
    40    18    26 2   
    41    18    47 1   
    42    19    24 1   
    43    19    43 1   
    44    19    44 1   
    45    19    45 1   
    46    21    46 1   
    47    22    23 1   
    48    22    47 1   
    49    34    47 1   
    50    35    47 1   
@<TRIPOS>SUBSTRUCTURE
     1 JH8         1 TEMP              0 ****  ****    0 ROOT
