@<TRIPOS>MOLECULE
JH8
   47    50     1     0     0
SMALL
abcg2


@<TRIPOS>ATOM
      1 C4          -6.1240     0.3930     0.2040 ca         1 JH8      -0.100000
      2 C5          -6.2890     1.7300     0.6290 ca         1 JH8       0.359900
      3 C7          -4.6430    -1.4120    -0.4710 ca         1 JH8      -0.102000
      4 C8          -7.2330    -0.4460    -0.0420 ca         1 JH8      -0.084000
      5 C10         -5.7350    -2.2040    -0.7090 ca         1 JH8      -0.095000
      6 C13         -0.1160     0.7810    -0.7870 ca         1 JH8      -0.112000
      7 C15         -0.4620    -1.0230     0.7450 ca         1 JH8      -0.112000
      8 C17          1.8130    -0.6750    -0.1910 cc         1 JH8      -0.158000
      9 C21          2.4460    -1.8570     0.2520 cc         1 JH8       0.264900
     10 C26          8.0480     1.2900     1.0450 c3         1 JH8       0.084300
     11 C1          -4.0430     2.0810     0.6730 ca         1 JH8       0.329900
     12 C11         -2.3170     0.4050     0.1410 cp         1 JH8      -0.047000
     13 C12         -1.4510     1.1310    -0.6750 ca         1 JH8      -0.092500
     14 C14          0.4070    -0.3030    -0.0790 ca         1 JH8       0.029000
     15 C16         -1.7980    -0.6770     0.8520 ca         1 JH8      -0.092500
     16 C18          2.8440     0.0440    -0.7640 cd         1 JH8      -0.135000
     17 C2          -3.7330     0.8030     0.2760 cp         1 JH8      -0.066000
     18 C23          5.9800     0.3820     0.1580 c          1 JH8       0.587100
     19 C27          8.0320     0.3390    -1.2080 c3         1 JH8       0.084300
     20 C3          -4.8080    -0.0910     0.0070 ca         1 JH8       0.001000
     21 C9          -7.0420    -1.7250    -0.4860 ca         1 JH8      -0.112000
     22 N19          3.9530    -0.7030    -0.6550 na         1 JH8       0.141800
     23 N20          3.7320    -1.8570    -0.0290 nd         1 JH8      -0.517800
     24 N24          7.2760     0.6870    -0.0220 n          1 JH8      -0.410800
     25 N6          -5.2960     2.5480     0.8470 nb         1 JH8      -0.663000
     26 O25          5.3510     0.6420     1.1710 o          1 JH8      -0.572100
     27 H1          -7.2940     2.1130     0.7830 h4         1 JH8       0.018100
     28 H2          -3.6510    -1.7970    -0.6640 ha         1 JH8       0.126000
     29 H3          -8.2320    -0.0600     0.1210 ha         1 JH8       0.116000
     30 H4          -5.5930    -3.2110    -1.0780 ha         1 JH8       0.114000
     31 H5           0.5210     1.3550    -1.4480 ha         1 JH8       0.112000
     32 H6          -0.0920    -1.8600     1.3240 ha         1 JH8       0.112000
     33 H7           2.0010    -2.7090     0.7450 h4         1 JH8       0.038100
     34 H8           5.2440     0.3350    -1.8800 h1         1 JH8       0.082200
     35 H9           5.8290    -1.2200    -1.3110 h1         1 JH8       0.082200
     36 H10          8.4350     2.2600     0.7300 h1         1 JH8       0.044033
     37 H11          7.4360     1.4270     1.9300 h1         1 JH8       0.044033
     38 H12          8.8960     0.6530     1.3030 h1         1 JH8       0.044033
     39 H13         -3.2450     2.7840     0.8870 h4         1 JH8       0.022100
     40 H14         -1.8300     1.9710    -1.2450 ha         1 JH8       0.116000
     41 H15         -2.4390    -1.2450     1.5140 ha         1 JH8       0.116000
     42 H16          2.8640     1.0140    -1.2340 h4         1 JH8       0.154000
     43 H17          8.5280    -0.6290    -1.1020 h1         1 JH8       0.044033
     44 H18          7.4140     0.3170    -2.1010 h1         1 JH8       0.044033
     45 H19          8.7980     1.0960    -1.3710 h1         1 JH8       0.044033
     46 H20         -7.8900    -2.3700    -0.6760 ha         1 JH8       0.116000
     47 C22          5.2880    -0.3230    -1.0110 c3         1 JH8       0.000600
@<TRIPOS>BOND
     1     1     2 ar  
     2     1     4 ar  
     3     1    20 ar  
     4     2    25 ar  
     5     2    27 1   
     6     3     5 ar  
     7     3    20 ar  
     8     3    28 1   
     9     4    21 ar  
    10     4    29 1   
    11     5    21 ar  
    12     5    30 1   
    13     6    13 ar  
    14     6    14 ar  
    15     6    31 1   
    16     7    14 ar  
    17     7    15 ar  
    18     7    32 1   
    19     8     9 1   
    20     8    14 1   
    21     8    16 2   
    22     9    23 2   
    23     9    33 1   
    24    10    24 1   
    25    10    36 1   
    26    10    37 1   
    27    10    38 1   
    28    11    17 ar  
    29    11    25 ar  
    30    11    39 1   
    31    12    13 ar  
    32    12    15 ar  
    33    12    17 1   
    34    13    40 1   
    35    15    41 1   
    36    16    22 1   
    37    16    42 1   
    38    17    20 ar  
    39    18    24 1   
    40    18    26 2   
    41    18    47 1   
    42    19    24 1   
    43    19    43 1   
    44    19    44 1   
    45    19    45 1   
    46    21    46 1   
    47    22    23 1   
    48    22    47 1   
    49    34    47 1   
    50    35    47 1   
@<TRIPOS>SUBSTRUCTURE
     1 JH8         1 TEMP              0 ****  ****    0 ROOT
