@<TRIPOS>MOLECULE
JH9
   63    65     1     0     0
SMALL
abcg2


@<TRIPOS>ATOM
      1 C10         18.1120     2.4760    21.0200 ca         1 JH9      -0.076000
      2 C13         19.2520     5.6330    26.5620 c          1 JH9       0.587100
      3 C15         17.7000     6.6470    28.1440 c3         1 JH9       0.158300
      4 C17         16.6970     8.8470    27.4610 ca         1 JH9      -0.082000
      5 C21         15.3320     7.6690    25.3230 ca         1 JH9      -0.109300
      6 C22         14.6440     7.0450    24.1360 c3         1 JH9       0.006100
      7 C24         15.0460     7.9220    21.8210 c2         1 JH9      -0.337000
      8 C28         21.5970     2.6320    25.9600 ca         1 JH9      -0.233300
      9 C02         18.9220     4.4360    23.6580 c          1 JH9       0.607100
     10 C03         19.3360     4.3410    22.2010 c3         1 JH9      -0.101100
     11 C04         19.2060     2.9020    21.7660 ca         1 JH9      -0.117300
     12 C05         20.1540     1.9600    22.1590 ca         1 JH9      -0.076000
     13 C06         20.0200     0.6210    21.8210 ca         1 JH9      -0.146500
     14 C07         18.9190     0.2360    21.0800 ca         1 JH9       0.167000
     15 C09         17.9610     1.1410    20.6670 ca         1 JH9      -0.146500
     16 C12         19.7370     4.3180    25.9540 c3         1 JH9       0.036700
     17 C16         16.8370     7.4850    27.2270 ca         1 JH9      -0.105300
     18 C18         15.8840     9.6260    26.6490 ca         1 JH9      -0.161000
     19 C19         15.2250     9.0250    25.5950 ca         1 JH9       0.163000
     20 C23         15.4500     7.2370    22.8840 c2         1 JH9      -0.193200
     21 C25         16.1480     6.9170    26.1620 ca         1 JH9      -0.059000
     22 C27         21.0500     3.8700    26.6170 c3         1 JH9      -0.003100
     23 C29         20.9530     1.4030    26.0890 ca         1 JH9      -0.092000
     24 C30         21.3880     0.2840    25.3960 ca         1 JH9      -0.190500
     25 C31         22.4820     0.3600    24.5260 ca         1 JH9       0.305100
     26 C37         23.1530     1.5810    24.4260 ca         1 JH9      -0.190500
     27 C38         22.7090     2.6950    25.1250 ca         1 JH9      -0.092000
     28 F08         18.7760    -1.0590    20.7520 f          1 JH9      -0.181000
     29 F20         14.4510     9.7880    24.8020 f          1 JH9      -0.191000
     30 N11         19.9360     4.4660    24.5360 ns         1 JH9      -0.465900
     31 O01         17.7490     4.4150    24.0020 o          1 JH9      -0.646100
     32 O32         22.8370    -0.6800    23.7700 os         1 JH9      -0.432500
     33 O34         23.2550    -2.5260    25.5420 o          1 JH9      -0.889833
     34 O35         25.1800    -1.0000    24.8050 o          1 JH9      -0.889833
     35 O36         24.1870    -2.7070    23.1480 o          1 JH9      -0.889833
     36 P33         23.9990    -1.8630    24.3950 p5         1 JH9       1.242900
     37 H1          17.3640     3.1930    20.7060 ha         1 JH9       0.122000
     38 H2          17.0990     6.2670    28.9710 h1         1 JH9       0.048700
     39 H3          18.4740     7.2750    28.5890 h1         1 JH9       0.048700
     40 H4          17.2290     9.3150    28.2810 ha         1 JH9       0.109000
     41 H5          13.6400     7.4520    24.0030 hc         1 JH9       0.055200
     42 H6          14.5300     5.9750    24.3280 hc         1 JH9       0.055200
     43 H7          14.0730     8.3990    21.7870 ha         1 JH9       0.154000
     44 H8          15.6730     8.0280    20.9460 ha         1 JH9       0.154000
     45 H9          20.3600     4.6900    22.0550 hc         1 JH9       0.057700
     46 H10         18.6810     4.9790    21.6080 hc         1 JH9       0.057700
     47 H11         21.0140     2.2630    22.7450 ha         1 JH9       0.122000
     48 H12         20.7590    -0.1050    22.1340 ha         1 JH9       0.152000
     49 H13         17.1100     0.8140    20.0840 ha         1 JH9       0.152000
     50 H14         18.9870     3.5390    26.1210 h1         1 JH9       0.071700
     51 H15         15.7730    10.6880    26.8260 ha         1 JH9       0.118000
     52 H16         16.4320     6.7720    22.8830 ha         1 JH9       0.193000
     53 H17         16.2520     5.8580    25.9580 ha         1 JH9       0.141000
     54 H18         21.7800     4.6810    26.5560 hc         1 JH9       0.038700
     55 H19         20.8500     3.7010    27.6780 hc         1 JH9       0.038700
     56 H20         20.0870     1.3190    26.7370 ha         1 JH9       0.066000
     57 H21         20.8630    -0.6560    25.5020 ha         1 JH9       0.127500
     58 H22         24.0120     1.6610    23.7720 ha         1 JH9       0.127500
     59 H23         23.2370     3.6360    25.0120 ha         1 JH9       0.066000
     60 H24         20.8800     4.5100    24.1870 hn         1 JH9       0.338500
     61 H25         17.9070     4.5960    27.6770 hn         1 JH9       0.322500
     62 N14         18.3000     5.5050    27.5000 ns         1 JH9      -0.509900
     63 O26         19.7250     6.7060    26.2310 o          1 JH9      -0.604100
@<TRIPOS>BOND
     1     1    11 ar  
     2     1    15 ar  
     3     1    37 1   
     4     2    16 1   
     5     2    62 1   
     6     2    63 2   
     7     3    17 1   
     8     3    38 1   
     9     3    39 1   
    10     3    62 1   
    11     4    17 ar  
    12     4    18 ar  
    13     4    40 1   
    14     5     6 1   
    15     5    19 ar  
    16     5    21 ar  
    17     6    20 1   
    18     6    41 1   
    19     6    42 1   
    20     7    20 2   
    21     7    43 1   
    22     7    44 1   
    23     8    22 1   
    24     8    23 ar  
    25     8    27 ar  
    26     9    10 1   
    27     9    30 1   
    28     9    31 2   
    29    10    11 1   
    30    10    45 1   
    31    10    46 1   
    32    11    12 ar  
    33    12    13 ar  
    34    12    47 1   
    35    13    14 ar  
    36    13    48 1   
    37    14    15 ar  
    38    14    28 1   
    39    15    49 1   
    40    16    22 1   
    41    16    30 1   
    42    16    50 1   
    43    17    21 ar  
    44    18    19 ar  
    45    18    51 1   
    46    19    29 1   
    47    20    52 1   
    48    21    53 1   
    49    22    54 1   
    50    22    55 1   
    51    23    24 ar  
    52    23    56 1   
    53    24    25 ar  
    54    24    57 1   
    55    25    26 ar  
    56    25    32 1   
    57    26    27 ar  
    58    26    58 1   
    59    27    59 1   
    60    30    60 1   
    61    32    36 1   
    62    33    36 1   
    63    34    36 1   
    64    35    36 1   
    65    61    62 1   
@<TRIPOS>SUBSTRUCTURE
     1 JH9         1 TEMP              0 ****  ****    0 ROOT
