@<TRIPOS>MOLECULE
JH9
   63    65     1     0     0
SMALL
No Charge or Current Charge


@<TRIPOS>ATOM
      1 C10         21.8250     2.0100    20.4780 ca         1 JH9      -0.076000
      2 C13         19.5010     6.1700    25.4320 c          1 JH9       0.587100
      3 C15         18.0950     7.4560    27.0860 c3         1 JH9       0.158300
      4 C17         16.6800     8.6330    25.3400 ca         1 JH9      -0.082000
      5 C21         14.3280     8.1830    26.8370 ca         1 JH9      -0.109300
      6 C22         13.0680     7.9290    27.6600 c3         1 JH9       0.006100
      7 C24         11.1330     6.4650    26.9000 c2         1 JH9      -0.337000
      8 C28         20.6620     2.4040    25.3110 ca         1 JH9      -0.233300
      9 C02         20.3080     4.2330    22.4070 c          1 JH9       0.607100
     10 C03         21.4160     4.3660    21.3540 c3         1 JH9      -0.101100
     11 C04         22.2490     3.0890    21.2830 ca         1 JH9      -0.117300
     12 C05         23.4360     2.9710    22.0360 ca         1 JH9      -0.076000
     13 C06         24.1930     1.7870    21.9810 ca         1 JH9      -0.146500
     14 C07         23.7640     0.7190    21.1760 ca         1 JH9       0.167000
     15 C09         22.5820     0.8250    20.4280 ca         1 JH9      -0.146500
     16 C12         19.7310     4.7570    24.8240 c3         1 JH9       0.036700
     17 C16         16.7530     7.9500    26.5680 ca         1 JH9      -0.105300
     18 C18         15.4400     9.0860    24.8570 ca         1 JH9      -0.161000
     19 C19         14.2710     8.8610    25.6010 ca         1 JH9       0.163000
     20 C23         12.4080     6.6140    27.2970 c2         1 JH9      -0.193200
     21 C25         15.5760     7.7280    27.3120 ca         1 JH9      -0.059000
     22 C27         20.3510     3.7920    25.8690 c3         1 JH9      -0.003100
     23 C29         19.6140     1.5230    24.9850 ca         1 JH9      -0.092000
     24 C30         19.8940     0.2470    24.4670 ca         1 JH9      -0.190500
     25 C31         21.2310    -0.1640    24.2740 ca         1 JH9       0.305100
     26 C37         22.2730     0.7170    24.6090 ca         1 JH9      -0.190500
     27 C38         21.9950     1.9950    25.1210 ca         1 JH9      -0.092000
     28 F08         24.4910    -0.4190    21.1250 f          1 JH9      -0.181000
     29 F20         13.0880     9.3010    25.1120 f          1 JH9      -0.191000
     30 N11         20.5810     4.8410    23.6130 ns         1 JH9      -0.465900
     31 O01         19.2600     3.6390    22.1900 o          1 JH9      -0.646100
     32 O32         21.5790    -1.3980    23.7800 os         1 JH9      -0.432500
     33 O34         19.6940    -2.2170    22.2760 o          1 JH9      -0.889833
     34 O35         19.8070    -3.0450    24.5630 o          1 JH9      -0.889833
     35 O36         21.4420    -3.7710    22.9240 o          1 JH9      -0.889833
     36 P33         20.6090    -2.6220    23.3800 p5         1 JH9       1.242900
     37 H1          20.9050     2.0860    19.9010 ha         1 JH9       0.122000
     38 H2          18.0240     7.2400    28.1600 h1         1 JH9       0.048700
     39 H3          18.8510     8.2410    26.9590 h1         1 JH9       0.048700
     40 H4          17.5830     8.8080    24.7580 ha         1 JH9       0.109000
     41 H5          12.3600     8.7590    27.5400 hc         1 JH9       0.055200
     42 H6          13.3230     7.9230    28.7270 hc         1 JH9       0.055200
     43 H7          10.4560     7.3150    26.8050 ha         1 JH9       0.154000
     44 H8          10.7250     5.4840    26.6540 ha         1 JH9       0.154000
     45 H9          22.0740     5.2050    21.6130 hc         1 JH9       0.057700
     46 H10         20.9550     4.5580    20.3780 hc         1 JH9       0.057700
     47 H11         23.7680     3.7910    22.6710 ha         1 JH9       0.122000
     48 H12         25.1040     1.6920    22.5670 ha         1 JH9       0.152000
     49 H13         22.2510    -0.0110    19.8130 ha         1 JH9       0.152000
     50 H14         18.7430     4.3720    24.5420 h1         1 JH9       0.071700
     51 H15         15.3850     9.6110    23.9070 ha         1 JH9       0.118000
     52 H16         13.0660     5.7440    27.3820 ha         1 JH9       0.193000
     53 H17         15.6300     7.1980    28.2610 ha         1 JH9       0.141000
     54 H18         21.2640     4.2510    26.2690 hc         1 JH9       0.038700
     55 H19         19.6660     3.6970    26.7210 hc         1 JH9       0.038700
     56 H20         18.5800     1.8280    25.1290 ha         1 JH9       0.066000
     57 H21         19.0670    -0.4100    24.2210 ha         1 JH9       0.127500
     58 H22         23.3030     0.4030    24.4700 ha         1 JH9       0.127500
     59 H23         22.8160     2.6640    25.3670 ha         1 JH9       0.066000
     60 H24         21.4640     5.3330    23.6840 hn         1 JH9       0.338500
     61 H25         18.0330     5.3720    26.6170 hn         1 JH9       0.322500
     62 N14         18.5150     6.2350    26.3960 ns         1 JH9      -0.509900
     63 O26         20.1360     7.1600    25.0880 o          1 JH9      -0.604100
@<TRIPOS>BOND
     1     1    11 ar  
     2     1    15 ar  
     3     1    37 1   
     4     2    16 1   
     5     2    62 1   
     6     2    63 2   
     7     3    17 1   
     8     3    38 1   
     9     3    39 1   
    10     3    62 1   
    11     4    17 ar  
    12     4    18 ar  
    13     4    40 1   
    14     5     6 1   
    15     5    19 ar  
    16     5    21 ar  
    17     6    20 1   
    18     6    41 1   
    19     6    42 1   
    20     7    20 2   
    21     7    43 1   
    22     7    44 1   
    23     8    22 1   
    24     8    23 ar  
    25     8    27 ar  
    26     9    10 1   
    27     9    30 1   
    28     9    31 2   
    29    10    11 1   
    30    10    45 1   
    31    10    46 1   
    32    11    12 ar  
    33    12    13 ar  
    34    12    47 1   
    35    13    14 ar  
    36    13    48 1   
    37    14    15 ar  
    38    14    28 1   
    39    15    49 1   
    40    16    22 1   
    41    16    30 1   
    42    16    50 1   
    43    17    21 ar  
    44    18    19 ar  
    45    18    51 1   
    46    19    29 1   
    47    20    52 1   
    48    21    53 1   
    49    22    54 1   
    50    22    55 1   
    51    23    24 ar  
    52    23    56 1   
    53    24    25 ar  
    54    24    57 1   
    55    25    26 ar  
    56    25    32 1   
    57    26    27 ar  
    58    26    58 1   
    59    27    59 1   
    60    30    60 1   
    61    32    36 1   
    62    33    36 1   
    63    34    36 1   
    64    35    36 1   
    65    61    62 1   
@<TRIPOS>SUBSTRUCTURE
     1 JH9         1 TEMP              0 ****  ****    0 ROOT
