@<TRIPOS>MOLECULE
JHA
   32    33     1     0     0
SMALL
No Charge or Current Charge


@<TRIPOS>ATOM
      1 C10          2.7230     1.7510     0.3940 ca         1 JHA      -0.163000
      2 C13          1.4000    -0.6020    -0.3700 ca         1 JHA       0.156000
      3 C01         -5.1100    -0.2490     0.0820 c3         1 JHA      -0.085100
      4 C02         -3.7390     0.4630    -0.0660 c6         1 JHA      -0.061700
      5 C03         -2.9390     0.4520     1.2640 c6         1 JHA      -0.074400
      6 C04         -1.5610     1.1380     1.1010 c6         1 JHA       0.189800
      7 N05         -0.7870     0.5190    -0.0100 nh         1 JHA      -0.765400
      8 C06         -1.5050     0.5310    -1.3130 c6         1 JHA       0.189800
      9 C07         -2.8820    -0.1680    -1.1940 c6         1 JHA      -0.074400
     10 C08          0.6330     0.5360     0.0010 ca         1 JHA       0.223000
     11 C09          1.3160     1.7100     0.3830 ca         1 JHA      -0.105000
     12 C11          3.4660     0.6220     0.0260 ca         1 JHA       0.283000
     13 C12          2.8050    -0.5520    -0.3540 ca         1 JHA      -0.164000
     14 Cl14         0.6290    -2.1250    -0.8350 cl         1 JHA      -0.200000
     15 N15          4.8330     0.6670     0.0400 nv         1 JHA      -1.067000
     16 H101         3.2300     2.6660     0.6880 ha         1 JHA       0.114000
     17 H013        -4.9850    -1.3050     0.3510 hc         1 JHA       0.033033
     18 H011        -5.7200     0.2240     0.8600 hc         1 JHA       0.033033
     19 H012        -5.6790    -0.2080    -0.8550 hc         1 JHA       0.033033
     20 H021        -3.9580     1.5060    -0.3340 hc         1 JHA       0.040700
     21 H031        -3.5090     0.9600     2.0530 hc         1 JHA       0.048450
     22 H032        -2.7900    -0.5830     1.6020 hc         1 JHA       0.048450
     23 H041        -1.7090     2.2100     0.9030 h1         1 JHA       0.034200
     24 H042        -1.0060     1.0480     2.0470 h1         1 JHA       0.034200
     25 H061        -1.6530     1.5690    -1.6470 h1         1 JHA       0.034200
     26 H062        -0.9120     0.0210    -2.0870 h1         1 JHA       0.034200
     27 H071        -2.7280    -1.2380    -0.9940 hc         1 JHA       0.048450
     28 H072        -3.4100    -0.1010    -2.1540 hc         1 JHA       0.048450
     29 H091         0.7570     2.5990     0.6620 ha         1 JHA       0.114000
     30 H121         3.3750    -1.4320    -0.6370 ha         1 JHA       0.128000
     31 H151         5.3130     1.4760     0.4310 hn         1 JHA       0.447000
     32 H152         5.3770    -0.1820    -0.1050 hn         1 JHA       0.447000
@<TRIPOS>BOND
     1     1    11 ar  
     2     1    12 ar  
     3     1    16 1   
     4     2    10 ar  
     5     2    13 ar  
     6     2    14 1   
     7     3     4 1   
     8     3    17 1   
     9     3    18 1   
    10     3    19 1   
    11     4     5 1   
    12     4     9 1   
    13     4    20 1   
    14     5     6 1   
    15     5    21 1   
    16     5    22 1   
    17     6     7 1   
    18     6    23 1   
    19     6    24 1   
    20     7     8 1   
    21     7    10 1   
    22     8     9 1   
    23     8    25 1   
    24     8    26 1   
    25     9    27 1   
    26     9    28 1   
    27    10    11 ar  
    28    11    29 1   
    29    12    13 ar  
    30    12    15 1   
    31    13    30 1   
    32    15    31 1   
    33    15    32 1   
@<TRIPOS>SUBSTRUCTURE
     1 JHA         1 TEMP              0 ****  ****    0 ROOT
