@<TRIPOS>MOLECULE
JHA
   32    33     1     0     0
SMALL
bcc


@<TRIPOS>ATOM
      1 C10          2.6070     1.7410     0.4090 ca         1 JHA      -0.181000
      2 C13          1.4280    -0.6120    -0.3760 ca         1 JHA       0.064400
      3 C01         -5.0880    -0.0840     0.0480 c3         1 JHA      -0.085100
      4 C02         -3.6950     0.5130    -0.0840 c6         1 JHA      -0.061700
      5 C03         -2.9370     0.4710     1.2400 c6         1 JHA      -0.074400
      6 C04         -1.5200     1.0050     1.0950 c6         1 JHA       0.189800
      7 N05         -0.8050     0.2500     0.0810 nh         1 JHA      -0.627000
      8 C06         -1.4540     0.3510    -1.2220 c6         1 JHA       0.189800
      9 C07         -2.8710    -0.1940    -1.1550 c6         1 JHA      -0.074400
     10 C08          0.5900     0.4230     0.0480 ca         1 JHA       0.084600
     11 C09          1.2310     1.6010     0.4370 ca         1 JHA      -0.123000
     12 C11          3.4240     0.7020    -0.0440 ca         1 JHA       0.144600
     13 C12          2.8040    -0.4880    -0.4390 ca         1 JHA      -0.182000
     14 CL14         0.7320    -2.1390    -0.8230 cl         1 JHA      -0.108400
     15 N15          4.7920     0.8550    -0.1450 nv         1 JHA      -0.818200
     16 H101         3.0540     2.6730     0.7350 ha         1 JHA       0.132000
     17 H013        -5.0360    -1.1360     0.3370 hc         1 JHA       0.033033
     18 H011        -5.6740     0.4390     0.8070 hc         1 JHA       0.033033
     19 H012        -5.6400    -0.0250    -0.8920 hc         1 JHA       0.033033
     20 H021        -3.7970     1.5660    -0.3780 hc         1 JHA       0.040700
     21 H031        -3.4630     1.0560     1.9990 hc         1 JHA       0.048450
     22 H032        -2.8940    -0.5620     1.6030 hc         1 JHA       0.048450
     23 H041        -1.5670     2.0810     0.8560 h1         1 JHA       0.034200
     24 H042        -0.9860     0.9130     2.0430 h1         1 JHA       0.034200
     25 H061        -1.4760     1.4000    -1.5630 h1         1 JHA       0.034200
     26 H062        -0.8780    -0.2080    -1.9590 h1         1 JHA       0.034200
     27 H071        -2.8260    -1.2660    -0.9340 hc         1 JHA       0.048450
     28 H072        -3.3430    -0.0860    -2.1350 hc         1 JHA       0.048450
     29 H091         0.6380     2.4370     0.7840 ha         1 JHA       0.132000
     30 H121         3.4040    -1.3230    -0.7790 ha         1 JHA       0.146000
     31 H151         5.1890     1.5630     0.4510 hn         1 JHA       0.391800
     32 H152         5.3290     0.0040    -0.1120 hn         1 JHA       0.391800
@<TRIPOS>BOND
     1     1    11 ar  
     2     1    12 ar  
     3     1    16 1   
     4     2    10 ar  
     5     2    13 ar  
     6     2    14 1   
     7     3     4 1   
     8     3    17 1   
     9     3    18 1   
    10     3    19 1   
    11     4     5 1   
    12     4     9 1   
    13     4    20 1   
    14     5     6 1   
    15     5    21 1   
    16     5    22 1   
    17     6     7 1   
    18     6    23 1   
    19     6    24 1   
    20     7     8 1   
    21     7    10 1   
    22     8     9 1   
    23     8    25 1   
    24     8    26 1   
    25     9    27 1   
    26     9    28 1   
    27    10    11 ar  
    28    11    29 1   
    29    12    13 ar  
    30    12    15 1   
    31    13    30 1   
    32    15    31 1   
    33    15    32 1   
@<TRIPOS>SUBSTRUCTURE
     1 JHA         1 TEMP              0 ****  ****    0 ROOT
