@<TRIPOS>MOLECULE
JHB
   48    51     1     0     0
SMALL
abcg2


@<TRIPOS>ATOM
      1 C4         -70.9990   -62.7850    31.6680 ca         1 JHB       0.334000
      2 C5         -72.1400   -63.4700    32.0980 ca         1 JHB      -0.214600
      3 C6         -72.2450   -64.9210    31.9190 c          1 JHB       0.589900
      4 C2         -71.9270   -60.7230    32.4300 ca         1 JHB       0.179000
      5 F2         -66.8200   -74.3380    26.6210 f          1 JHB      -0.108667
      6 C23        -66.8870   -73.1500    27.2010 c3         1 JHB       0.515000
      7 F          -68.1180   -72.6650    27.0220 f          1 JHB      -0.108667
      8 F1         -66.7290   -73.3170    28.5150 f          1 JHB      -0.108667
      9 C22        -65.8210   -71.0690    27.1190 ca         1 JHB       0.091100
     10 C18        -66.5020   -70.0570    26.4610 ca         1 JHB      -0.096500
     11 C19        -66.3250   -68.7480    26.8780 ca         1 JHB      -0.097500
     12 C21        -64.9740   -70.7940    28.1760 ca         1 JHB      -0.096500
     13 C20        -64.8090   -69.4760    28.5800 ca         1 JHB      -0.097500
     14 C17        -65.4780   -68.4380    27.9410 ca         1 JHB      -0.068300
     15 C13        -66.5300   -66.4390    29.0260 ca         1 JHB      -0.063300
     16 C12        -67.2690   -65.4360    28.4090 ca         1 JHB      -0.107000
     17 C11        -68.4060   -64.9150    29.0110 ca         1 JHB      -0.084000
     18 C14        -66.9590   -66.9140    30.2640 ca         1 JHB      -0.107000
     19 C15        -68.0950   -66.4040    30.8670 ca         1 JHB      -0.084000
     20 C10        -68.8340   -65.4000    30.2440 ca         1 JHB      -0.084800
     21 C7         -70.0340   -64.8330    30.8930 cc         1 JHB       0.207800
     22 C8         -71.1220   -65.5700    31.2710 cd         1 JHB      -0.249400
     23 C9         -71.2450   -67.0430    31.0260 c3         1 JHB      -0.027900
     24 O          -73.2400   -65.5440    32.2900 o          1 JHB      -0.563100
     25 C          -73.1730   -62.7390    32.6980 ca         1 JHB      -0.010000
     26 N          -69.9880   -63.4880    31.0840 na         1 JHB      -0.790000
     27 C3         -70.8880   -61.3970    31.8370 ca         1 JHB      -0.182000
     28 CL         -71.8060   -59.0120    32.6420 cl         1 JHB      -0.194000
     29 C1         -73.0820   -61.3790    32.8690 ca         1 JHB      -0.157000
     30 H1         -67.1460   -70.2830    25.6220 ha         1 JHB       0.136000
     31 H2         -66.8520   -67.9550    26.3610 ha         1 JHB       0.121000
     32 H3         -64.4300   -71.5890    28.6700 ha         1 JHB       0.136000
     33 H4         -64.1410   -69.2570    29.4030 ha         1 JHB       0.121000
     34 H5         -64.4570   -66.9500    29.0790 hc         1 JHB       0.060700
     35 H6         -65.0200   -66.3940    27.5170 hc         1 JHB       0.060700
     36 H7         -66.9550   -65.0510    27.4460 ha         1 JHB       0.119000
     37 H8         -68.9690   -64.1400    28.5060 ha         1 JHB       0.124000
     38 H9         -66.3920   -67.6890    30.7680 ha         1 JHB       0.119000
     39 H10        -68.4030   -66.7790    31.8350 ha         1 JHB       0.124000
     40 H12        -72.2140   -67.2750    30.5820 hc         1 JHB       0.046367
     41 H13        -70.4750   -67.4180    30.3570 hc         1 JHB       0.046367
     42 H14        -71.1810   -67.6120    31.9550 hc         1 JHB       0.046367
     43 H15        -74.0580   -63.2630    33.0330 ha         1 JHB       0.143000
     44 H16        -70.0010   -60.8760    31.5010 ha         1 JHB       0.130000
     45 H17        -73.8850   -60.8240    33.3330 ha         1 JHB       0.136000
     46 H11        -69.1440   -62.9960    30.8260 hn         1 JHB       0.508000
     47 C16        -65.2930   -67.0070    28.3780 c3         1 JHB       0.010200
     48 O1         -65.9400   -72.3780    26.6590 os         1 JHB      -0.403100
@<TRIPOS>BOND
     1     1     2 ar  
     2     1    26 1   
     3     1    27 ar  
     4     2     3 1   
     5     2    25 ar  
     6     3    22 1   
     7     3    24 2   
     8     4    27 ar  
     9     4    28 1   
    10     4    29 ar  
    11     5     6 1   
    12     6     7 1   
    13     6     8 1   
    14     6    48 1   
    15     9    10 ar  
    16     9    12 ar  
    17     9    48 1   
    18    10    11 ar  
    19    10    30 1   
    20    11    14 ar  
    21    11    31 1   
    22    12    13 ar  
    23    12    32 1   
    24    13    14 ar  
    25    13    33 1   
    26    14    47 1   
    27    15    16 ar  
    28    15    18 ar  
    29    15    47 1   
    30    16    17 ar  
    31    16    36 1   
    32    17    20 ar  
    33    17    37 1   
    34    18    19 ar  
    35    18    38 1   
    36    19    20 ar  
    37    19    39 1   
    38    20    21 1   
    39    21    22 2   
    40    21    26 1   
    41    22    23 1   
    42    23    40 1   
    43    23    41 1   
    44    23    42 1   
    45    25    29 ar  
    46    25    43 1   
    47    26    46 1   
    48    27    44 1   
    49    29    45 1   
    50    34    47 1   
    51    35    47 1   
@<TRIPOS>SUBSTRUCTURE
     1 JHB         1 TEMP              0 ****  ****    0 ROOT
