@<TRIPOS>MOLECULE
JHB
   48    51     1     0     0
SMALL
No Charge or Current Charge


@<TRIPOS>ATOM
      1 C4         -71.1440   -62.6660    31.5390 ca         1 JHB       0.334000
      2 C5         -72.1900   -63.3590    32.1420 ca         1 JHB      -0.214600
      3 C6         -72.1330   -64.8350    32.1460 c          1 JHB       0.589900
      4 C2         -72.2330   -60.5590    32.0810 ca         1 JHB       0.179000
      5 F2         -66.9590   -74.4170    25.8740 f          1 JHB      -0.108667
      6 C23        -66.5850   -73.4670    26.7600 c3         1 JHB       0.515000
      7 F          -67.4580   -73.5270    27.7920 f          1 JHB      -0.108667
      8 F1         -65.3640   -73.8210    27.2240 f          1 JHB      -0.108667
      9 C22        -66.2310   -70.9960    26.7880 ca         1 JHB       0.091100
     10 C18        -66.2700   -69.8070    26.0400 ca         1 JHB      -0.096500
     11 C19        -65.9370   -68.5760    26.6330 ca         1 JHB      -0.097500
     12 C21        -65.8530   -70.9420    28.1500 ca         1 JHB      -0.096500
     13 C20        -65.5200   -69.7090    28.7410 ca         1 JHB      -0.097500
     14 C17        -65.5580   -68.5210    27.9870 ca         1 JHB      -0.068300
     15 C13        -66.4320   -66.5330    29.2570 ca         1 JHB      -0.063300
     16 C12        -67.2410   -65.6690    28.4950 ca         1 JHB      -0.107000
     17 C11        -68.3770   -65.0710    29.0660 ca         1 JHB      -0.084000
     18 C14        -66.7730   -66.7910    30.5980 ca         1 JHB      -0.107000
     19 C15        -67.9100   -66.1930    31.1690 ca         1 JHB      -0.084000
     20 C10        -68.7280   -65.3370    30.4040 ca         1 JHB      -0.084800
     21 C7         -69.9050   -64.6980    30.9940 cc         1 JHB       0.207800
     22 C8         -70.9400   -65.4600    31.5240 cd         1 JHB      -0.249400
     23 C9         -70.9560   -66.9840    31.5170 c3         1 JHB      -0.027900
     24 O          -73.0410   -65.4900    32.6490 o          1 JHB      -0.563100
     25 C          -73.2700   -62.6570    32.7210 ca         1 JHB      -0.010000
     26 N          -70.0640   -63.3140    30.9600 na         1 JHB      -0.790000
     27 C3         -71.1650   -61.2630    31.5070 ca         1 JHB      -0.182000
     28 Cl         -72.2500   -58.8020    32.0360 cl         1 JHB      -0.194000
     29 C1         -73.2870   -61.2540    32.6890 ca         1 JHB      -0.157000
     30 H1         -66.5610   -69.8400    24.9930 ha         1 JHB       0.136000
     31 H2         -65.9770   -67.6660    26.0390 ha         1 JHB       0.121000
     32 H3         -65.8100   -71.8350    28.7650 ha         1 JHB       0.136000
     33 H4         -65.2340   -69.6790    29.7900 ha         1 JHB       0.121000
     34 H5         -64.4310   -67.3340    29.3960 hc         1 JHB       0.060700
     35 H6         -64.7580   -66.5170    27.8920 hc         1 JHB       0.060700
     36 H7         -66.9900   -65.4610    27.4570 ha         1 JHB       0.119000
     37 H8         -68.9950   -64.4080    28.4640 ha         1 JHB       0.124000
     38 H9         -66.1570   -67.4540    31.2000 ha         1 JHB       0.119000
     39 H10        -68.1540   -66.3920    32.2100 ha         1 JHB       0.124000
     40 H12        -71.9640   -67.3880    31.3630 hc         1 JHB       0.046367
     41 H13        -70.3430   -67.4020    30.7100 hc         1 JHB       0.046367
     42 H14        -70.5780   -67.3850    32.4660 hc         1 JHB       0.046367
     43 H15        -74.0920   -63.1930    33.1940 ha         1 JHB       0.143000
     44 H16        -70.3540   -60.7140    31.0390 ha         1 JHB       0.130000
     45 H17        -74.1150   -60.7070    33.1330 ha         1 JHB       0.136000
     46 H11        -69.3360   -62.7510    30.5280 hn         1 JHB       0.508000
     47 C16        -65.2070   -67.1880    28.6350 c3         1 JHB       0.010200
     48 O1         -66.5720   -72.1670    26.1350 os         1 JHB      -0.403100
@<TRIPOS>BOND
     1     1     2 ar  
     2     1    26 1   
     3     1    27 ar  
     4     2     3 1   
     5     2    25 ar  
     6     3    22 1   
     7     3    24 2   
     8     4    27 ar  
     9     4    28 1   
    10     4    29 ar  
    11     5     6 1   
    12     6     7 1   
    13     6     8 1   
    14     6    48 1   
    15     9    10 ar  
    16     9    12 ar  
    17     9    48 1   
    18    10    11 ar  
    19    10    30 1   
    20    11    14 ar  
    21    11    31 1   
    22    12    13 ar  
    23    12    32 1   
    24    13    14 ar  
    25    13    33 1   
    26    14    47 1   
    27    15    16 ar  
    28    15    18 ar  
    29    15    47 1   
    30    16    17 ar  
    31    16    36 1   
    32    17    20 ar  
    33    17    37 1   
    34    18    19 ar  
    35    18    38 1   
    36    19    20 ar  
    37    19    39 1   
    38    20    21 1   
    39    21    22 2   
    40    21    26 1   
    41    22    23 1   
    42    23    40 1   
    43    23    41 1   
    44    23    42 1   
    45    25    29 ar  
    46    25    43 1   
    47    26    46 1   
    48    27    44 1   
    49    29    45 1   
    50    34    47 1   
    51    35    47 1   
@<TRIPOS>SUBSTRUCTURE
     1 JHB         1 TEMP              0 ****  ****    0 ROOT
