@<TRIPOS>MOLECULE
JHC
   64    68     1     0     0
SMALL
abcg2


@<TRIPOS>ATOM
      1 N           -9.0520    -1.0590   -56.3880 nh         1 JHC      -0.733600
      2 C          -11.4750     0.6030   -51.1940 c3         1 JHC      -0.088100
      3 O           -7.3790     2.8780   -56.2210 o          1 JHC      -0.575100
      4 C1         -10.7120     0.0310   -52.3810 c3         1 JHC      -0.075400
      5 C10         -6.8540     1.5890   -54.3500 ca         1 JHC      -0.122600
      6 C11         -5.8260     0.7520   -54.7780 ca         1 JHC      -0.076000
      7 C12         -4.8330     0.3030   -53.9180 ca         1 JHC      -0.064300
      8 C13         -3.7050    -0.5530   -54.4100 c3         1 JHC      -0.051800
      9 C14         -4.8890     0.7110   -52.5860 ca         1 JHC      -0.097000
     10 C15         -5.8820     1.5640   -52.1430 ca         1 JHC      -0.099000
     11 C16         -6.8570     2.0120   -53.0260 ca         1 JHC       0.035800
     12 C17         -9.1910     4.4870   -52.5080 cc         1 JHC       0.195400
     13 C18         -9.1270     3.8870   -51.2460 cc         1 JHC       0.195400
     14 C19         -7.8830    -1.6940   -56.3580 cc         1 JHC       0.783500
     15 C2         -10.6200     0.9950   -53.5760 c3         1 JHC      -0.069700
     16 C20         -6.0230    -2.5950   -56.7920 ca         1 JHC       0.109400
     17 C21         -4.8490    -3.0840   -57.3450 ca         1 JHC      -0.071000
     18 C22         -4.0160    -3.8050   -56.4980 ca         1 JHC       0.116000
     19 C23         -4.3140    -4.0470   -55.1610 ca         1 JHC      -0.115000
     20 C24         -5.4920    -3.5510   -54.6050 ca         1 JHC      -0.073000
     21 C25         -6.3030    -2.8350   -55.4480 ca         1 JHC       0.004100
     22 C3         -11.9960     1.2040   -54.2060 c3         1 JHC      -0.087100
     23 C4          -9.5050     0.5180   -54.5270 c3         1 JHC       0.099700
     24 C5          -9.8340    -0.8370   -55.1940 c3         1 JHC       0.218800
     25 C6          -9.4750    -0.4320   -57.6400 c3         1 JHC       0.242800
     26 C7         -10.4530     0.7070   -57.4100 c3         1 JHC      -0.112400
     27 C8          -9.8580     1.8850   -56.6430 c3         1 JHC       0.094000
     28 N1          -9.0390     1.5070   -55.4950 n          1 JHC      -0.397800
     29 N2          -7.8420     2.9050   -52.5530 na         1 JHC       0.335800
     30 N3          -8.3610     3.8470   -53.3100 nd         1 JHC      -0.486300
     31 N4          -8.2650     2.8890   -51.3090 nd         1 JHC      -0.486300
     32 N5          -7.0520    -1.8650   -57.3450 nd         1 JHC      -0.662100
     33 O1          -7.5020    -2.2440   -55.1800 os         1 JHC      -0.305700
     34 CL          -2.5300    -4.4370   -57.1420 cl         1 JHC      -0.203000
     35 H1         -11.4640    -0.0940   -50.3550 hc         1 JHC       0.034700
     36 H2         -11.0230     1.5370   -50.8560 hc         1 JHC       0.034700
     37 H3         -12.5200     0.8040   -51.4310 hc         1 JHC       0.034700
     38 H4         -11.1810    -0.9070   -52.6940 hc         1 JHC       0.040200
     39 H5          -9.7030    -0.2320   -52.0480 hc         1 JHC       0.040200
     40 H6          -5.8030     0.4400   -55.8160 ha         1 JHC       0.135000
     41 H7          -2.7860     0.0310   -54.4800 hc         1 JHC       0.049700
     42 H8          -3.5110    -1.3840   -53.7340 hc         1 JHC       0.049700
     43 H9          -3.9130    -0.9660   -55.3950 hc         1 JHC       0.049700
     44 H10         -4.1330     0.3760   -51.8870 ha         1 JHC       0.121000
     45 H11         -5.8940     1.8940   -51.1130 ha         1 JHC       0.140000
     46 H13         -9.6550     4.1260   -50.3380 h4         1 JHC       0.054600
     47 H14        -10.2940     1.9650   -53.1900 hc         1 JHC       0.061700
     48 H15         -4.5980    -2.9160   -58.3830 ha         1 JHC       0.148000
     49 H16         -3.6310    -4.6160   -54.5470 ha         1 JHC       0.133000
     50 H17         -5.7360    -3.7260   -53.5670 ha         1 JHC       0.135000
     51 H18        -12.6930     1.5810   -53.4580 hc         1 JHC       0.034700
     52 H19        -11.9860     1.9350   -55.0110 hc         1 JHC       0.034700
     53 H20        -12.4220     0.2790   -54.5980 hc         1 JHC       0.034700
     54 H21         -8.6460     0.3240   -53.8850 h1         1 JHC       0.069700
     55 H22        -10.8870    -0.9240   -55.4510 h1         1 JHC       0.066700
     56 H23         -9.6530    -1.6320   -54.4740 h1         1 JHC       0.066700
     57 H24         -9.9360    -1.1830   -58.2870 h1         1 JHC       0.064700
     58 H25         -8.5920    -0.0590   -58.1600 h1         1 JHC       0.064700
     59 H26        -10.7480     1.0800   -58.3930 hc         1 JHC       0.055200
     60 H27        -11.3770     0.3500   -56.9530 hc         1 JHC       0.055200
     61 H28         -9.2150     2.4420   -57.3180 h1         1 JHC       0.065200
     62 H29        -10.6510     2.5700   -56.3380 h1         1 JHC       0.065200
     63 C9          -7.8060     2.0660   -55.4160 c          1 JHC       0.630700
     64 H12         -9.7760     5.3250   -52.8500 h4         1 JHC       0.054600
@<TRIPOS>BOND
     1     1    14 1   
     2     1    24 1   
     3     1    25 1   
     4     2     4 1   
     5     2    35 1   
     6     2    36 1   
     7     2    37 1   
     8     3    63 2   
     9     4    15 1   
    10     4    38 1   
    11     4    39 1   
    12     5     6 ar  
    13     5    11 ar  
    14     5    63 1   
    15     6     7 ar  
    16     6    40 1   
    17     7     8 1   
    18     7     9 ar  
    19     8    41 1   
    20     8    42 1   
    21     8    43 1   
    22     9    10 ar  
    23     9    44 1   
    24    10    11 ar  
    25    10    45 1   
    26    11    29 1   
    27    12    13 1   
    28    12    30 2   
    29    12    64 1   
    30    13    31 2   
    31    13    46 1   
    32    14    32 2   
    33    14    33 1   
    34    15    22 1   
    35    15    23 1   
    36    15    47 1   
    37    16    17 ar  
    38    16    21 ar  
    39    16    32 1   
    40    17    18 ar  
    41    17    48 1   
    42    18    19 ar  
    43    18    34 1   
    44    19    20 ar  
    45    19    49 1   
    46    20    21 ar  
    47    20    50 1   
    48    21    33 1   
    49    22    51 1   
    50    22    52 1   
    51    22    53 1   
    52    23    24 1   
    53    23    28 1   
    54    23    54 1   
    55    24    55 1   
    56    24    56 1   
    57    25    26 1   
    58    25    57 1   
    59    25    58 1   
    60    26    27 1   
    61    26    59 1   
    62    26    60 1   
    63    27    28 1   
    64    27    61 1   
    65    27    62 1   
    66    28    63 1   
    67    29    30 1   
    68    29    31 1   
@<TRIPOS>SUBSTRUCTURE
     1 JHC         1 TEMP              0 ****  ****    0 ROOT
