@<TRIPOS>MOLECULE
JHC
   64    68     1     0     0
SMALL
No Charge or Current Charge


@<TRIPOS>ATOM
      1 N           -9.0620    -1.0050   -56.4940 nh         1 JHC      -0.733600
      2 C          -11.4360     0.5650   -50.9950 c3         1 JHC      -0.088100
      3 O           -7.2630     2.4220   -56.5430 o          1 JHC      -0.575100
      4 C1         -10.5390     0.0900   -52.1600 c3         1 JHC      -0.075400
      5 C10         -6.7720     1.5060   -54.4270 ca         1 JHC      -0.122600
      6 C11         -5.7060     0.6360   -54.7430 ca         1 JHC      -0.076000
      7 C12         -4.7850     0.2310   -53.7620 ca         1 JHC      -0.064300
      8 C13         -3.6410    -0.7090   -54.1120 c3         1 JHC      -0.051800
      9 C14         -4.9230     0.7110   -52.4510 ca         1 JHC      -0.097000
     10 C15         -5.9570     1.6050   -52.1300 ca         1 JHC      -0.099000
     11 C16         -6.8860     2.0230   -53.1080 ca         1 JHC       0.035800
     12 C17         -8.9780     4.7260   -52.8010 cc         1 JHC       0.195400
     13 C18         -9.2440     4.0230   -51.6240 cc         1 JHC       0.195400
     14 C19         -7.8880    -1.7180   -56.4350 cc         1 JHC       0.783500
     15 C2         -10.6880     0.9100   -53.4760 c3         1 JHC      -0.069700
     16 C20         -6.0320    -2.5990   -56.8620 ca         1 JHC       0.109400
     17 C21         -4.8370    -3.0600   -57.4290 ca         1 JHC      -0.071000
     18 C22         -3.9640    -3.8130   -56.6160 ca         1 JHC       0.116000
     19 C23         -4.2960    -4.0910   -55.2680 ca         1 JHC      -0.115000
     20 C24         -5.5060    -3.6120   -54.7220 ca         1 JHC      -0.073000
     21 C25         -6.3430    -2.8660   -55.5610 ca         1 JHC       0.004100
     22 C3         -12.1500     0.8600   -54.0040 c3         1 JHC      -0.087100
     23 C4          -9.5880     0.4970   -54.5170 c3         1 JHC       0.099700
     24 C5          -9.9020    -0.8240   -55.2830 c3         1 JHC       0.218800
     25 C6          -9.4020    -0.2050   -57.7030 c3         1 JHC       0.242800
     26 C7         -10.4420     0.9330   -57.5020 c3         1 JHC      -0.112400
     27 C8         -10.0160     2.0520   -56.5130 c3         1 JHC       0.094000
     28 N1          -9.1130     1.6140   -55.4090 n          1 JHC      -0.397800
     29 N2          -7.8460     2.9870   -52.7550 na         1 JHC       0.335800
     30 N3          -8.0830     4.1120   -53.5380 nd         1 JHC      -0.486300
     31 N4          -8.5360     2.9230   -51.5490 nd         1 JHC      -0.486300
     32 N5          -7.0270    -1.8510   -57.4520 nd         1 JHC      -0.662100
     33 O1          -7.5330    -2.3150   -55.2340 os         1 JHC      -0.305700
     34 Cl          -2.4500    -4.4100   -57.2810 cl         1 JHC      -0.203000
     35 H1         -11.1880     0.0150   -50.0790 hc         1 JHC       0.034700
     36 H2         -11.2890     1.6340   -50.8010 hc         1 JHC       0.034700
     37 H3         -12.4960     0.3910   -51.2120 hc         1 JHC       0.034700
     38 H4         -10.7470    -0.9680   -52.3580 hc         1 JHC       0.040200
     39 H5          -9.4980     0.1430   -51.8190 hc         1 JHC       0.040200
     40 H6          -5.6030     0.2670   -55.7610 ha         1 JHC       0.135000
     41 H7          -2.6730    -0.2110   -53.9780 hc         1 JHC       0.049700
     42 H8          -3.6520    -1.5970   -53.4690 hc         1 JHC       0.049700
     43 H9          -3.6960    -1.0500   -55.1520 hc         1 JHC       0.049700
     44 H10         -4.2140     0.4080   -51.6830 ha         1 JHC       0.121000
     45 H11         -6.0230     1.9910   -51.1150 ha         1 JHC       0.140000
     46 H13         -9.9240     4.2850   -50.8260 h4         1 JHC       0.054600
     47 H14        -10.4930     1.9570   -53.2230 hc         1 JHC       0.061700
     48 H15         -4.5910    -2.8430   -58.4640 ha         1 JHC       0.148000
     49 H16         -3.6140    -4.6730   -54.6520 ha         1 JHC       0.133000
     50 H17         -5.7780    -3.8100   -53.6880 ha         1 JHC       0.135000
     51 H18        -12.8220     1.4060   -53.3320 hc         1 JHC       0.034700
     52 H19        -12.2520     1.3150   -54.9920 hc         1 JHC       0.034700
     53 H20        -12.5130    -0.1730   -54.0690 hc         1 JHC       0.034700
     54 H21         -8.7250     0.2160   -53.9060 h1         1 JHC       0.069700
     55 H22        -10.9560    -0.8500   -55.5780 h1         1 JHC       0.066700
     56 H23         -9.7830    -1.6660   -54.5900 h1         1 JHC       0.066700
     57 H24         -9.7840    -0.8830   -58.4790 h1         1 JHC       0.064700
     58 H25         -8.4900     0.2540   -58.1090 h1         1 JHC       0.064700
     59 H26        -10.6420     1.3970   -58.4750 hc         1 JHC       0.055200
     60 H27        -11.4000     0.5060   -57.1870 hc         1 JHC       0.055200
     61 H28         -9.5260     2.8430   -57.0940 h1         1 JHC       0.065200
     62 H29        -10.9050     2.5310   -56.0870 h1         1 JHC       0.065200
     63 C9          -7.7170     1.8770   -55.5430 c          1 JHC       0.630700
     64 H12         -9.4020     5.6630   -53.1330 h4         1 JHC       0.054600
@<TRIPOS>BOND
     1     1    14 1   
     2     1    24 1   
     3     1    25 1   
     4     2     4 1   
     5     2    35 1   
     6     2    36 1   
     7     2    37 1   
     8     3    63 2   
     9     4    15 1   
    10     4    38 1   
    11     4    39 1   
    12     5     6 ar  
    13     5    11 ar  
    14     5    63 1   
    15     6     7 ar  
    16     6    40 1   
    17     7     8 1   
    18     7     9 ar  
    19     8    41 1   
    20     8    42 1   
    21     8    43 1   
    22     9    10 ar  
    23     9    44 1   
    24    10    11 ar  
    25    10    45 1   
    26    11    29 1   
    27    12    13 1   
    28    12    30 2   
    29    12    64 1   
    30    13    31 2   
    31    13    46 1   
    32    14    32 2   
    33    14    33 1   
    34    15    22 1   
    35    15    23 1   
    36    15    47 1   
    37    16    17 ar  
    38    16    21 ar  
    39    16    32 1   
    40    17    18 ar  
    41    17    48 1   
    42    18    19 ar  
    43    18    34 1   
    44    19    20 ar  
    45    19    49 1   
    46    20    21 ar  
    47    20    50 1   
    48    21    33 1   
    49    22    51 1   
    50    22    52 1   
    51    22    53 1   
    52    23    24 1   
    53    23    28 1   
    54    23    54 1   
    55    24    55 1   
    56    24    56 1   
    57    25    26 1   
    58    25    57 1   
    59    25    58 1   
    60    26    27 1   
    61    26    59 1   
    62    26    60 1   
    63    27    28 1   
    64    27    61 1   
    65    27    62 1   
    66    28    63 1   
    67    29    30 1   
    68    29    31 1   
@<TRIPOS>SUBSTRUCTURE
     1 JHC         1 TEMP              0 ****  ****    0 ROOT
