@<TRIPOS>MOLECULE
JHD
   25    25     1     0     0
SMALL
No Charge or Current Charge


@<TRIPOS>ATOM
      1 C10          0.5840     3.2230     0.0080 c3         1 JHD       0.146900
      2 N12         -3.7930    -0.6100     0.8160 n8         1 JHD      -1.000200
      3 C01          3.4050    -1.6270     0.1980 c3         1 JHD       0.145900
      4 O02          2.6010    -0.4360     0.1400 os         1 JHD      -0.322100
      5 C03          1.2230    -0.4750    -0.0090 ca         1 JHD       0.110100
      6 C04          0.5200    -1.6960    -0.1140 ca         1 JHD      -0.174000
      7 C05         -0.8770    -1.6980    -0.2640 ca         1 JHD      -0.086000
      8 C06         -1.5910    -0.4870    -0.3130 ca         1 JHD      -0.087300
      9 C07         -0.8960     0.7340    -0.2090 ca         1 JHD      -0.173000
     10 C08          0.5100     0.7480    -0.0570 ca         1 JHD       0.109100
     11 O09          1.2210     1.9340     0.0470 os         1 JHD      -0.322100
     12 H103         0.0570     3.3690    -0.9430 h1         1 JHD       0.037700
     13 H101        -0.1350     3.3280     0.8310 h1         1 JHD       0.037700
     14 H102         1.3320     4.0190     0.1070 h1         1 JHD       0.037700
     15 H121        -3.5520     0.2120     1.3820 hn         1 JHD       0.396500
     16 H122        -4.8040    -0.5150     0.6650 hn         1 JHD       0.396500
     17 H011         3.1120    -2.2540     1.0490 h1         1 JHD       0.038367
     18 H012         3.3030    -2.2120    -0.7250 h1         1 JHD       0.038367
     19 H013         4.4640    -1.3640     0.3180 h1         1 JHD       0.038367
     20 H041         1.0370    -2.6510    -0.0800 ha         1 JHD       0.118000
     21 H051        -1.4090    -2.6440    -0.3420 ha         1 JHD       0.132000
     22 H071        -1.4630     1.6590    -0.2490 ha         1 JHD       0.114000
     23 H111        -3.4040    -1.3470    -1.1160 h1         1 JHD       0.032200
     24 H112        -3.4320     0.4260    -0.9780 h1         1 JHD       0.032200
     25 C11         -3.1060    -0.4990    -0.4830 c3         1 JHD       0.202100
@<TRIPOS>BOND
     1     1    11 1   
     2     1    12 1   
     3     1    13 1   
     4     1    14 1   
     5     2    15 1   
     6     2    16 1   
     7     2    25 1   
     8     3     4 1   
     9     3    17 1   
    10     3    18 1   
    11     3    19 1   
    12     4     5 1   
    13     5     6 ar  
    14     5    10 ar  
    15     6     7 ar  
    16     6    20 1   
    17     7     8 ar  
    18     7    21 1   
    19     8     9 ar  
    20     8    25 1   
    21     9    10 ar  
    22     9    22 1   
    23    10    11 1   
    24    23    25 1   
    25    24    25 1   
@<TRIPOS>SUBSTRUCTURE
     1 JHD         1 TEMP              0 ****  ****    0 ROOT
