@<TRIPOS>MOLECULE
JHD
   25    25     1     0     0
SMALL
abcg2


@<TRIPOS>ATOM
      1 C10          0.7630     3.1740    -0.2850 c3         1 JHD       0.146900
      2 N12         -3.7780    -1.3530     0.3100 n8         1 JHD      -1.000200
      3 C01          3.2480    -1.5890     0.2330 c3         1 JHD       0.145900
      4 O02          2.5500    -0.3720     0.0700 os         1 JHD      -0.322100
      5 C03          1.2040    -0.4210     0.0070 ca         1 JHD       0.110100
      6 C04          0.4430    -1.5750     0.0600 ca         1 JHD      -0.174000
      7 C05         -0.9500    -1.5170    -0.0130 ca         1 JHD      -0.086000
      8 C06         -1.5980    -0.3030    -0.1360 ca         1 JHD      -0.087300
      9 C07         -0.8300     0.8660    -0.1830 ca         1 JHD      -0.173000
     10 C08          0.5520     0.8230    -0.1190 ca         1 JHD       0.109100
     11 O09          1.3600     1.9010    -0.1570 os         1 JHD      -0.322100
     12 H103         0.1890     3.2650    -1.2120 h1         1 JHD       0.037700
     13 H101         0.1050     3.4050     0.5570 h1         1 JHD       0.037700
     14 H102         1.5750     3.8970    -0.3030 h1         1 JHD       0.037700
     15 H121        -3.6820    -1.3500     1.3170 hn         1 JHD       0.396500
     16 H122        -4.7700    -1.2800     0.1230 hn         1 JHD       0.396500
     17 H011         2.9710    -2.0980     1.1610 h1         1 JHD       0.038367
     18 H012         3.0820    -2.2740    -0.6030 h1         1 JHD       0.038367
     19 H013         4.3050    -1.3370     0.2740 h1         1 JHD       0.038367
     20 H041         0.9180    -2.5420     0.1610 ha         1 JHD       0.118000
     21 H051        -1.5230    -2.4320     0.0340 ha         1 JHD       0.132000
     22 H071        -1.3420     1.8170    -0.2710 ha         1 JHD       0.114000
     23 H111        -3.3710    -0.1250    -1.3030 h1         1 JHD       0.032200
     24 H112        -3.4130     0.7560     0.2040 h1         1 JHD       0.032200
     25 C11         -3.1000    -0.1970    -0.2450 c3         1 JHD       0.202100
@<TRIPOS>BOND
     1     1    11 1   
     2     1    12 1   
     3     1    13 1   
     4     1    14 1   
     5     2    15 1   
     6     2    16 1   
     7     2    25 1   
     8     3     4 1   
     9     3    17 1   
    10     3    18 1   
    11     3    19 1   
    12     4     5 1   
    13     5     6 ar  
    14     5    10 ar  
    15     6     7 ar  
    16     6    20 1   
    17     7     8 ar  
    18     7    21 1   
    19     8     9 ar  
    20     8    25 1   
    21     9    10 ar  
    22     9    22 1   
    23    10    11 1   
    24    23    25 1   
    25    24    25 1   
@<TRIPOS>SUBSTRUCTURE
     1 JHD         1 TEMP              0 ****  ****    0 ROOT
