@<TRIPOS>MOLECULE
JHE
   49    52     1     0     0
SMALL
No Charge or Current Charge


@<TRIPOS>ATOM
      1 C1         -69.8760   -62.4330    32.6340 ca         1 JHE      -0.209600
      2 C2         -69.1090   -61.8150    31.6390 ca         1 JHE       0.328000
      3 C3         -68.1030   -63.9530    30.9250 cc         1 JHE       0.212800
      4 C5         -70.7360   -61.6740    33.4600 ca         1 JHE      -0.023000
      5 C6         -70.8350   -60.2860    33.2920 ca         1 JHE      -0.155000
      6 C7         -70.0790   -59.6530    32.2980 ca         1 JHE      -0.054000
      7 C8         -69.2260   -60.4110    31.4810 ca         1 JHE      -0.164000
      8 C10        -67.2030   -64.7280    30.0630 ca         1 JHE      -0.075800
      9 C11        -66.1120   -65.4300    30.6140 ca         1 JHE      -0.077000
     10 C12        -65.2530   -66.1720    29.7850 ca         1 JHE      -0.108500
     11 C13        -65.4700   -66.2190    28.3950 ca         1 JHE      -0.066300
     12 C14        -66.5550   -65.5130    27.8430 ca         1 JHE      -0.108500
     13 C15        -67.4140   -64.7700    28.6720 ca         1 JHE      -0.077000
     14 C16        -64.5460   -67.0330    27.4990 c3         1 JHE       0.010200
     15 C17        -65.0460   -68.4620    27.3380 ca         1 JHE      -0.067300
     16 C19        -65.1180   -70.7800    28.1080 ca         1 JHE      -0.096500
     17 C21        -66.3860   -70.1130    26.1430 ca         1 JHE      -0.096500
     18 C22        -65.9180   -68.7950    26.2850 ca         1 JHE      -0.097500
     19 C23        -66.1910   -73.5210    27.6820 c3         1 JHE       0.514000
     20 F2         -64.8680   -73.8050    27.6930 f          1 JHE      -0.109667
     21 F          -66.8260   -74.6270    27.2350 f          1 JHE      -0.109667
     22 F1         -66.5880   -73.3290    28.9610 f          1 JHE      -0.109667
     23 C20        -65.9930   -71.1140    27.0480 ca         1 JHE       0.090100
     24 C18        -64.6510   -69.4600    28.2480 ca         1 JHE      -0.097500
     25 C4         -68.8790   -64.6180    31.8690 cd         1 JHE      -0.248400
     26 C          -69.7800   -63.8980    32.7940 c          1 JHE       0.587900
     27 O          -70.4310   -64.4720    33.6620 o          1 JHE      -0.562100
     28 N          -68.2320   -62.5540    30.8100 na         1 JHE      -0.448700
     29 O1         -67.4480   -61.8400    29.8680 oh         1 JHE      -0.362300
     30 H1         -71.3330   -62.1560    34.2330 ha         1 JHE       0.139000
     31 H2         -71.4980   -59.7040    33.9280 ha         1 JHE       0.121000
     32 H3         -70.1540   -58.5760    32.1600 ha         1 JHE       0.116000
     33 H4         -68.6580   -59.8870    30.7190 ha         1 JHE       0.128000
     34 H5         -69.8650   -66.5260    32.3040 hc         1 JHE       0.047033
     35 H6         -68.5790   -66.6610    31.1300 hc         1 JHE       0.047033
     36 H7         -68.1800   -66.4340    32.8400 hc         1 JHE       0.047033
     37 H8         -65.9300   -65.3990    31.6860 ha         1 JHE       0.124500
     38 H9         -64.4190   -66.7140    30.2260 ha         1 JHE       0.118000
     39 H10        -66.7360   -65.5410    26.7710 ha         1 JHE       0.118000
     40 H11        -68.2500   -64.2280    28.2340 ha         1 JHE       0.124500
     41 H12        -63.5290   -67.0350    27.9110 hc         1 JHE       0.059700
     42 H13        -64.4570   -66.5520    26.5170 hc         1 JHE       0.059700
     43 H14        -64.7900   -71.5200    28.8310 ha         1 JHE       0.135500
     44 H15        -67.0600   -70.3620    25.3270 ha         1 JHE       0.135500
     45 H16        -66.2370   -68.0330    25.5770 ha         1 JHE       0.121000
     46 H17        -63.9820   -69.2140    29.0690 ha         1 JHE       0.121000
     47 H18        -66.5690   -61.6680    30.2780 ho         1 JHE       0.450000
     48 C9         -68.8730   -66.1340    32.0450 c3         1 JHE      -0.025900
     49 O2         -66.4960   -72.3870    26.8430 os         1 JHE      -0.403100
@<TRIPOS>BOND
     1     1     2 ar  
     2     1     4 ar  
     3     1    26 1   
     4     2     7 ar  
     5     2    28 1   
     6     3     8 1   
     7     3    25 2   
     8     3    28 1   
     9     4     5 ar  
    10     4    30 1   
    11     5     6 ar  
    12     5    31 1   
    13     6     7 ar  
    14     6    32 1   
    15     7    33 1   
    16     8     9 ar  
    17     8    13 ar  
    18     9    10 ar  
    19     9    37 1   
    20    10    11 ar  
    21    10    38 1   
    22    11    12 ar  
    23    11    14 1   
    24    12    13 ar  
    25    12    39 1   
    26    13    40 1   
    27    14    15 1   
    28    14    41 1   
    29    14    42 1   
    30    15    18 ar  
    31    15    24 ar  
    32    16    23 ar  
    33    16    24 ar  
    34    16    43 1   
    35    17    18 ar  
    36    17    23 ar  
    37    17    44 1   
    38    18    45 1   
    39    19    20 1   
    40    19    21 1   
    41    19    22 1   
    42    19    49 1   
    43    23    49 1   
    44    24    46 1   
    45    25    26 1   
    46    25    48 1   
    47    26    27 2   
    48    28    29 1   
    49    29    47 1   
    50    34    48 1   
    51    35    48 1   
    52    36    48 1   
@<TRIPOS>SUBSTRUCTURE
     1 JHE         1 TEMP              0 ****  ****    0 ROOT
