@<TRIPOS>MOLECULE
JHE
   49    52     1     0     0
SMALL
bcc


@<TRIPOS>ATOM
      1 C1         -69.8900   -62.5540    32.5420 ca         1 JHE      -0.209600
      2 C2         -68.8230   -61.9630    31.8490 ca         1 JHE       0.189600
      3 C3         -68.3210   -64.0820    30.8240 cc         1 JHE       0.212800
      4 C5         -70.6630   -61.7540    33.3950 ca         1 JHE      -0.041000
      5 C6         -70.3910   -60.4160    33.5520 ca         1 JHE      -0.173000
      6 C7         -69.3250   -59.8430    32.8490 ca         1 JHE      -0.072000
      7 C8         -68.5430   -60.5970    32.0060 ca         1 JHE      -0.182000
      8 C10        -67.4160   -64.7810    29.8800 ca         1 JHE      -0.075800
      9 C11        -66.3540   -65.5400    30.3600 ca         1 JHE      -0.095000
     10 C12        -65.5220   -66.2110    29.4790 ca         1 JHE      -0.126500
     11 C13        -65.7310   -66.1380    28.1040 ca         1 JHE      -0.066300
     12 C14        -66.7980   -65.3790    27.6330 ca         1 JHE      -0.126500
     13 C15        -67.6340   -64.7040    28.5100 ca         1 JHE      -0.095000
     14 C16        -64.8270   -66.8820    27.1540 c3         1 JHE       0.010200
     15 C17        -65.0280   -68.3760    27.2230 ca         1 JHE      -0.067300
     16 C19        -64.2140   -70.5890    27.7720 ca         1 JHE      -0.114500
     17 C21        -66.4230   -70.3160    26.8420 ca         1 JHE      -0.114500
     18 C22        -66.2250   -68.9460    26.7920 ca         1 JHE      -0.115500
     19 C23        -66.1260   -73.0860    28.3860 c3         1 JHE       0.854700
     20 F2         -65.4110   -72.9050    29.4990 f          1 JHE      -0.230967
     21 F          -66.2000   -74.3860    28.1480 f          1 JHE      -0.230967
     22 F1         -67.3570   -72.6370    28.6420 f          1 JHE      -0.230967
     23 C20        -65.4100   -71.1240    27.3340 ca         1 JHE       0.090100
     24 C18        -64.0320   -69.2130    27.7120 ca         1 JHE      -0.115500
     25 C4         -69.3450   -64.7130    31.4700 cd         1 JHE      -0.248400
     26 C          -70.1940   -63.9780    32.3810 c          1 JHE       0.587900
     27 O          -71.1260   -64.5140    32.9830 o          1 JHE      -0.562100
     28 N          -68.0710   -62.7590    31.0260 na         1 JHE      -0.310300
     29 O1         -67.0710   -62.1730    30.3180 oh         1 JHE      -0.323300
     30 H1         -71.4830   -62.2120    33.9320 ha         1 JHE       0.157000
     31 H2         -70.9950   -59.8080    34.2120 ha         1 JHE       0.139000
     32 H3         -69.1080   -58.7890    32.9660 ha         1 JHE       0.134000
     33 H4         -67.7250   -60.1360    31.4720 ha         1 JHE       0.146000
     34 H5         -70.6890   -66.3100    30.9870 hc         1 JHE       0.047033
     35 H6         -69.0220   -66.6240    30.5160 hc         1 JHE       0.047033
     36 H7         -69.5000   -66.7230    32.2060 hc         1 JHE       0.047033
     37 H8         -66.1790   -65.6090    31.4270 ha         1 JHE       0.142500
     38 H9         -64.6990   -66.7990    29.8680 ha         1 JHE       0.136000
     39 H10        -66.9780   -65.3110    26.5670 ha         1 JHE       0.136000
     40 H11        -68.4610   -64.1210    28.1240 ha         1 JHE       0.142500
     41 H12        -63.7850   -66.6480    27.3800 hc         1 JHE       0.059700
     42 H13        -65.0110   -66.5370    26.1340 hc         1 JHE       0.059700
     43 H14        -63.4230   -71.2310    28.1380 ha         1 JHE       0.153500
     44 H15        -67.3480   -70.7490    26.4830 ha         1 JHE       0.153500
     45 H16        -67.0140   -68.3150    26.4030 ha         1 JHE       0.139000
     46 H17        -63.0930   -68.7910    28.0470 ha         1 JHE       0.139000
     47 H18        -66.2640   -62.2630    30.8480 ho         1 JHE       0.411000
     48 C9         -69.6470   -66.1670    31.2780 c3         1 JHE      -0.025900
     49 O2         -65.5730   -72.5060    27.3170 os         1 JHE      -0.379900
@<TRIPOS>BOND
     1     1     2 ar  
     2     1     4 ar  
     3     1    26 1   
     4     2     7 ar  
     5     2    28 1   
     6     3     8 1   
     7     3    25 2   
     8     3    28 1   
     9     4     5 ar  
    10     4    30 1   
    11     5     6 ar  
    12     5    31 1   
    13     6     7 ar  
    14     6    32 1   
    15     7    33 1   
    16     8     9 ar  
    17     8    13 ar  
    18     9    10 ar  
    19     9    37 1   
    20    10    11 ar  
    21    10    38 1   
    22    11    12 ar  
    23    11    14 1   
    24    12    13 ar  
    25    12    39 1   
    26    13    40 1   
    27    14    15 1   
    28    14    41 1   
    29    14    42 1   
    30    15    18 ar  
    31    15    24 ar  
    32    16    23 ar  
    33    16    24 ar  
    34    16    43 1   
    35    17    18 ar  
    36    17    23 ar  
    37    17    44 1   
    38    18    45 1   
    39    19    20 1   
    40    19    21 1   
    41    19    22 1   
    42    19    49 1   
    43    23    49 1   
    44    24    46 1   
    45    25    26 1   
    46    25    48 1   
    47    26    27 2   
    48    28    29 1   
    49    29    47 1   
    50    34    48 1   
    51    35    48 1   
    52    36    48 1   
@<TRIPOS>SUBSTRUCTURE
     1 JHE         1 TEMP              0 ****  ****    0 ROOT
