@<TRIPOS>MOLECULE
JHF
   73    78     1     0     0
SMALL
No Charge or Current Charge


@<TRIPOS>ATOM
      1 CBJ          7.3330    -8.0250    -7.3100 c3         1 JHF       0.145900
      2 OBI          6.1270    -7.3640    -7.7310 os         1 JHF      -0.319100
      3 CBE          6.0210    -6.7230    -8.9530 ca         1 JHF       0.103100
      4 CBF          4.8040    -6.0960    -9.2900 ca         1 JHF       0.141000
      5 FBH          3.7580    -6.1340    -8.4320 f          1 JHF      -0.161000
      6 CBG          4.6560    -5.4340   -10.5200 ca         1 JHF      -0.094000
      7 CBD          7.0810    -6.6980    -9.8850 ca         1 JHF      -0.185000
      8 CBC          6.9260    -6.0340   -11.1140 ca         1 JHF      -0.095000
      9 CBB          5.7390    -5.3320   -11.4190 ca         1 JHF      -0.068000
     10 NBA          5.5470    -4.7730   -12.7420 n          1 JHF      -0.247400
     11 CAZ          4.4150    -5.0990   -13.5450 c          1 JHF       0.582000
     12 OBK          3.6000    -5.9460   -13.1990 o          1 JHF      -0.536000
     13 CAY          4.2240    -4.4020   -14.9000 c6         1 JHF      -0.158400
     14 CAX          5.5460    -4.0080   -15.5800 c6         1 JHF      -0.073400
     15 CAW          6.3760    -3.1800   -14.5900 c6         1 JHF      -0.087400
     16 CAR          6.6970    -3.9800   -13.3010 c6         1 JHF       0.131400
     17 CAO          7.2870    -3.0200   -12.2660 cc         1 JHF       0.393800
     18 NAP          6.5580    -2.1680   -11.5090 nd         1 JHF      -0.558100
     19 CAL          7.4910    -1.5190   -10.7190 ca         1 JHF       0.065400
     20 CAM          7.2460    -0.5500    -9.7360 ca         1 JHF      -0.043000
     21 CAF          8.3350    -0.0050    -9.0090 ca         1 JHF      -0.016000
     22 CAA          8.1130     1.0090    -7.9610 cc         1 JHF      -0.178000
     23 CAE          7.1930     2.0150    -8.0720 cd         1 JHF       0.201300
     24 CAG          6.2050     2.3790    -9.1510 c3         1 JHF      -0.140400
     25 OAD          7.3200     2.8780    -7.0160 os         1 JHF      -0.071700
     26 NAC          8.4140     2.4450    -6.1950 nd         1 JHF      -0.365300
     27 CAB          8.8580     1.3600    -6.8060 cc         1 JHF       0.292300
     28 CAH         10.0080     0.5610    -6.2560 c3         1 JHF      -0.134400
     29 CAI          9.6450    -0.4740    -9.3010 ca         1 JHF      -0.078000
     30 CAJ          9.8660    -1.4470   -10.2960 ca         1 JHF      -0.114000
     31 CAK          8.7540    -1.9440   -10.9890 ca         1 JHF      -0.073200
     32 NAN          8.6660    -2.8790   -11.9870 na         1 JHF      -0.168600
     33 CAQ          9.7840    -3.5620   -12.6680 c5         1 JHF       0.077300
     34 CAV         10.9060    -2.6260   -13.2360 c5         1 JHF       0.202800
     35 CAS         10.5780    -4.5590   -11.7720 c5         1 JHF      -0.103400
     36 CAT         11.9520    -4.5780   -12.4690 c5         1 JHF       0.210800
     37 NAU         12.1580    -3.1310   -12.6220 n3         1 JHF      -0.762500
     38 SBL         13.6640    -2.5430   -13.1930 s6         1 JHF       1.217100
     39 OBM         14.6720    -2.9420   -12.2070 o          1 JHF      -0.526500
     40 OBN         13.4650    -1.1200   -13.4890 o          1 JHF      -0.526500
     41 CBO         13.9330    -3.4150   -14.7270 c3         1 JHF      -0.383100
     42 H1           7.2010    -8.4560    -6.3100 h1         1 JHF       0.044700
     43 H2           7.5930    -8.8390    -7.9990 h1         1 JHF       0.044700
     44 H3           8.1710    -7.3170    -7.2680 h1         1 JHF       0.044700
     45 H4           3.7020    -4.9700   -10.7530 ha         1 JHF       0.156000
     46 H5           8.0230    -7.2000    -9.6820 ha         1 JHF       0.122000
     47 H6           7.7430    -6.0710   -11.8300 ha         1 JHF       0.118000
     48 H7           3.6850    -3.4710   -14.6820 hc         1 JHF       0.078700
     49 H8           3.5720    -5.0050   -15.5460 hc         1 JHF       0.078700
     50 H9           5.3470    -3.4270   -16.4910 hc         1 JHF       0.051700
     51 H10          6.1010    -4.9070   -15.8860 hc         1 JHF       0.051700
     52 H11          7.3120    -2.8530   -15.0660 hc         1 JHF       0.068700
     53 H12          5.8260    -2.2620   -14.3350 hc         1 JHF       0.068700
     54 H13          7.4460    -4.7260   -13.5870 h1         1 JHF       0.044700
     55 H14          6.2220    -0.2640    -9.5230 ha         1 JHF       0.132000
     56 H15          5.9710     3.4500    -9.1220 hc         1 JHF       0.064700
     57 H16          6.6040     2.1600   -10.1480 hc         1 JHF       0.064700
     58 H17          5.2640     1.8320    -9.0240 hc         1 JHF       0.064700
     59 H18         10.0830     0.6820    -5.1690 hc         1 JHF       0.057367
     60 H19          9.8800    -0.5080    -6.4580 hc         1 JHF       0.057367
     61 H20         10.9570     0.8910    -6.6930 hc         1 JHF       0.057367
     62 H21         10.5060    -0.0630    -8.7860 ha         1 JHF       0.120000
     63 H22         10.8750    -1.7900   -10.5130 ha         1 JHF       0.127000
     64 H23          9.3960    -4.1190   -13.5280 h1         1 JHF       0.063700
     65 H24         10.7310    -1.5700   -12.9870 h1         1 JHF       0.070200
     66 H25         10.9360    -2.6990   -14.3320 h1         1 JHF       0.070200
     67 H26         10.6710    -4.2020   -10.7410 hc         1 JHF       0.079200
     68 H27         10.1180    -5.5520   -11.7320 hc         1 JHF       0.079200
     69 H28         11.9180    -5.1010   -13.4350 h1         1 JHF       0.061700
     70 H29         12.7220    -5.0500   -11.8420 h1         1 JHF       0.061700
     71 H30         14.0070    -4.4820   -14.4980 h1         1 JHF       0.099700
     72 H31         13.0840    -3.2030   -15.3850 h1         1 JHF       0.099700
     73 H32         14.8680    -3.0390   -15.1550 h1         1 JHF       0.099700
@<TRIPOS>BOND
     1     1     2 1   
     2     1    42 1   
     3     1    43 1   
     4     1    44 1   
     5     2     3 1   
     6     3     4 ar  
     7     3     7 ar  
     8     4     5 1   
     9     4     6 ar  
    10     6     9 ar  
    11     6    45 1   
    12     7     8 ar  
    13     7    46 1   
    14     8     9 ar  
    15     8    47 1   
    16     9    10 1   
    17    10    11 1   
    18    10    16 1   
    19    11    12 2   
    20    11    13 1   
    21    13    14 1   
    22    13    48 1   
    23    13    49 1   
    24    14    15 1   
    25    14    50 1   
    26    14    51 1   
    27    15    16 1   
    28    15    52 1   
    29    15    53 1   
    30    16    17 1   
    31    16    54 1   
    32    17    18 2   
    33    17    32 1   
    34    18    19 1   
    35    19    20 ar  
    36    19    31 ar  
    37    20    21 ar  
    38    20    55 1   
    39    21    22 1   
    40    21    29 ar  
    41    22    23 2   
    42    22    27 1   
    43    23    24 1   
    44    23    25 1   
    45    24    56 1   
    46    24    57 1   
    47    24    58 1   
    48    25    26 1   
    49    26    27 2   
    50    27    28 1   
    51    28    59 1   
    52    28    60 1   
    53    28    61 1   
    54    29    30 ar  
    55    29    62 1   
    56    30    31 ar  
    57    30    63 1   
    58    31    32 1   
    59    32    33 1   
    60    33    34 1   
    61    33    35 1   
    62    33    64 1   
    63    34    37 1   
    64    34    65 1   
    65    34    66 1   
    66    35    36 1   
    67    35    67 1   
    68    35    68 1   
    69    36    37 1   
    70    36    69 1   
    71    36    70 1   
    72    37    38 1   
    73    38    39 2   
    74    38    40 2   
    75    38    41 1   
    76    41    71 1   
    77    41    72 1   
    78    41    73 1   
@<TRIPOS>SUBSTRUCTURE
     1 JHF         1 TEMP              0 ****  ****    0 ROOT
