@<TRIPOS>MOLECULE
JHF
   73    78     1     0     0
SMALL
abcg2


@<TRIPOS>ATOM
      1 CBJ          8.8290    -8.6550    -8.8030 c3         1 JHF       0.145900
      2 OBI          8.0470    -7.4990    -8.5660 os         1 JHF      -0.319100
      3 CBE          7.5530    -6.8460    -9.6250 ca         1 JHF       0.103100
      4 CBF          6.8390    -5.6730    -9.3570 ca         1 JHF       0.141000
      5 FBH          6.7000    -5.3030    -8.0760 f          1 JHF      -0.161000
      6 CBG          6.2890    -4.9010   -10.3510 ca         1 JHF      -0.094000
      7 CBD          7.6950    -7.2240   -10.9560 ca         1 JHF      -0.185000
      8 CBC          7.1390    -6.4520   -11.9700 ca         1 JHF      -0.095000
      9 CBB          6.4390    -5.2950   -11.6790 ca         1 JHF      -0.068000
     10 NBA          5.8900    -4.5140   -12.7350 n          1 JHF      -0.247400
     11 CAZ          4.6160    -4.7930   -13.1300 c          1 JHF       0.582000
     12 OBK          3.9210    -5.5710   -12.5000 o          1 JHF      -0.536000
     13 CAY          4.1130    -4.1150   -14.3790 c6         1 JHF      -0.158400
     14 CAX          5.2290    -3.6700   -15.3070 c6         1 JHF      -0.073400
     15 CAW          6.1710    -2.7860   -14.5150 c6         1 JHF      -0.087400
     16 CAR          6.8160    -3.5720   -13.3750 c6         1 JHF       0.131400
     17 CAO          7.3350    -2.6200   -12.3300 cc         1 JHF       0.393800
     18 NAP          6.5640    -1.7270   -11.7800 nd         1 JHF      -0.558100
     19 CAL          7.3530    -1.0650   -10.8780 ca         1 JHF       0.065400
     20 CAM          7.0150    -0.0380   -10.0020 ca         1 JHF      -0.043000
     21 CAF          7.9980     0.4750    -9.1670 ca         1 JHF      -0.016000
     22 CAA          7.6770     1.5530    -8.2290 cc         1 JHF      -0.178000
     23 CAE          6.9360     2.6720    -8.4520 cd         1 JHF       0.201300
     24 CAG          6.2580     3.2160    -9.6500 c3         1 JHF      -0.140400
     25 OAD          6.8450     3.3720    -7.3190 os         1 JHF      -0.071700
     26 NAC          7.5190     2.7330    -6.3210 nd         1 JHF      -0.365300
     27 CAB          8.0230     1.6560    -6.8470 cc         1 JHF       0.292300
     28 CAH          8.8210     0.7110    -6.0220 c3         1 JHF      -0.134400
     29 CAI          9.3050    -0.0520    -9.2240 ca         1 JHF      -0.078000
     30 CAJ          9.6520    -1.0820   -10.0770 ca         1 JHF      -0.114000
     31 CAK          8.6520    -1.5890   -10.9030 ca         1 JHF      -0.073200
     32 NAN          8.6180    -2.5940   -11.8470 na         1 JHF      -0.168600
     33 CAQ          9.6810    -3.5320   -12.1300 c5         1 JHF       0.077300
     34 CAV         10.9660    -2.8980   -12.6840 c5         1 JHF       0.202800
     35 CAS         10.1410    -4.3570   -10.9300 c5         1 JHF      -0.103400
     36 CAT         11.4510    -4.9340   -11.4280 c5         1 JHF       0.210800
     37 NAU         12.0030    -3.8210   -12.2130 n3         1 JHF      -0.762500
     38 SBL         13.3610    -4.0590   -13.0980 s6         1 JHF       1.217100
     39 OBM         14.2440    -4.8860   -12.2900 o          1 JHF      -0.526500
     40 OBN         13.8100    -2.7530   -13.5560 o          1 JHF      -0.526500
     41 CBO         12.8860    -5.0080   -14.5290 c3         1 JHF      -0.383100
     42 H1           9.1500    -9.0140    -7.8290 h1         1 JHF       0.044700
     43 H2           8.2540    -9.4420    -9.2970 h1         1 JHF       0.044700
     44 H3           9.7120    -8.4280    -9.4070 h1         1 JHF       0.044700
     45 H4           5.7450    -4.0000   -10.0970 ha         1 JHF       0.156000
     46 H5           8.2380    -8.1200   -11.2220 ha         1 JHF       0.122000
     47 H6           7.2590    -6.7640   -13.0000 ha         1 JHF       0.118000
     48 H7           3.5180    -3.2480   -14.0720 hc         1 JHF       0.078700
     49 H8           3.4240    -4.8070   -14.8660 hc         1 JHF       0.078700
     50 H9           4.8190    -3.1220   -16.1560 hc         1 JHF       0.051700
     51 H10          5.7600    -4.5360   -15.7110 hc         1 JHF       0.051700
     52 H11          6.9730    -2.3830   -15.1340 hc         1 JHF       0.068700
     53 H12          5.6150    -1.9370   -14.1130 hc         1 JHF       0.068700
     54 H13          7.6340    -4.1580   -13.8000 h1         1 JHF       0.044700
     55 H14          5.9980     0.3300    -9.9640 ha         1 JHF       0.132000
     56 H15          6.3880     4.2960    -9.7200 hc         1 JHF       0.064700
     57 H16          6.6650     2.7610   -10.5510 hc         1 JHF       0.064700
     58 H17          5.1870     3.0100    -9.6280 hc         1 JHF       0.064700
     59 H18          8.7150     0.9400    -4.9630 hc         1 JHF       0.057367
     60 H19          8.4980    -0.3170    -6.1890 hc         1 JHF       0.057367
     61 H20          9.8800     0.7650    -6.2730 hc         1 JHF       0.057367
     62 H21         10.0720     0.3700    -8.5890 ha         1 JHF       0.120000
     63 H22         10.6670    -1.4560   -10.0850 ha         1 JHF       0.127000
     64 H23          9.3070    -4.2270   -12.8800 h1         1 JHF       0.063700
     65 H24         11.1400    -1.8950   -12.2930 h1         1 JHF       0.070200
     66 H25         10.9170    -2.8240   -13.7720 h1         1 JHF       0.070200
     67 H26         10.3080    -3.7350   -10.0510 hc         1 JHF       0.079200
     68 H27          9.4230    -5.1310   -10.6700 hc         1 JHF       0.079200
     69 H28         11.2680    -5.8230   -12.0420 h1         1 JHF       0.061700
     70 H29         12.1210    -5.2070   -10.6160 h1         1 JHF       0.061700
     71 H30         12.4660    -5.9600   -14.2100 h1         1 JHF       0.099700
     72 H31         12.1560    -4.4530   -15.1150 h1         1 JHF       0.099700
     73 H32         13.7790    -5.1820   -15.1270 h1         1 JHF       0.099700
@<TRIPOS>BOND
     1     1     2 1   
     2     1    42 1   
     3     1    43 1   
     4     1    44 1   
     5     2     3 1   
     6     3     4 ar  
     7     3     7 ar  
     8     4     5 1   
     9     4     6 ar  
    10     6     9 ar  
    11     6    45 1   
    12     7     8 ar  
    13     7    46 1   
    14     8     9 ar  
    15     8    47 1   
    16     9    10 1   
    17    10    11 1   
    18    10    16 1   
    19    11    12 2   
    20    11    13 1   
    21    13    14 1   
    22    13    48 1   
    23    13    49 1   
    24    14    15 1   
    25    14    50 1   
    26    14    51 1   
    27    15    16 1   
    28    15    52 1   
    29    15    53 1   
    30    16    17 1   
    31    16    54 1   
    32    17    18 2   
    33    17    32 1   
    34    18    19 1   
    35    19    20 ar  
    36    19    31 ar  
    37    20    21 ar  
    38    20    55 1   
    39    21    22 1   
    40    21    29 ar  
    41    22    23 2   
    42    22    27 1   
    43    23    24 1   
    44    23    25 1   
    45    24    56 1   
    46    24    57 1   
    47    24    58 1   
    48    25    26 1   
    49    26    27 2   
    50    27    28 1   
    51    28    59 1   
    52    28    60 1   
    53    28    61 1   
    54    29    30 ar  
    55    29    62 1   
    56    30    31 ar  
    57    30    63 1   
    58    31    32 1   
    59    32    33 1   
    60    33    34 1   
    61    33    35 1   
    62    33    64 1   
    63    34    37 1   
    64    34    65 1   
    65    34    66 1   
    66    35    36 1   
    67    35    67 1   
    68    35    68 1   
    69    36    37 1   
    70    36    69 1   
    71    36    70 1   
    72    37    38 1   
    73    38    39 2   
    74    38    40 2   
    75    38    41 1   
    76    41    71 1   
    77    41    72 1   
    78    41    73 1   
@<TRIPOS>SUBSTRUCTURE
     1 JHF         1 TEMP              0 ****  ****    0 ROOT
