@<TRIPOS>MOLECULE
JHH
   63    68     1     0     0
SMALL
No Charge or Current Charge


@<TRIPOS>ATOM
      1 C1          -0.8650    -0.3740    -0.3010 c5         1 JHH      -0.038700
      2 C10         -0.3600    -1.8710     1.5360 c5         1 JHH      -0.065400
      3 C11         -4.5880     0.2120    -0.6300 c5         1 JHH       0.180300
      4 C12         -4.0980     1.6830    -0.3480 c5         1 JHH      -0.144700
      5 C13         -2.5370     1.6160    -0.4660 c5         1 JHH       0.176300
      6 C16         -4.7540     2.7520    -1.2520 c3         1 JHH      -0.086100
      7 C17          1.2770     1.1370    -0.1420 c6         1 JHH      -0.190700
      8 C18          2.1180     0.2160    -1.0740 c6         1 JHH       0.190300
      9 C2          -0.8270    -1.9080     0.0620 c5         1 JHH      -0.025500
     10 C20          2.2670    -1.3470     0.8800 c6         1 JHH       0.199000
     11 C22          2.5210    -2.8750     1.0510 c3         1 JHH      -0.079100
     12 C23          2.1040     2.1060     0.7510 c          1 JHH       0.669100
     13 C25          4.2290     1.2100    -0.1860 c6         1 JHH       0.196300
     14 C26          3.4570     0.8530    -1.4600 c6         1 JHH      -0.118700
     15 C28          4.2710    -0.0090    -2.4700 c3         1 JHH      -0.076100
     16 C29          3.4700    -0.6000     1.5870 c3         1 JHH      -0.108400
     17 C3          -2.1770    -2.6620    -0.0330 c2         1 JHH      -0.113400
     18 C30          4.6040    -0.0030     0.7230 c3         1 JHH      -0.086400
     19 C4          -3.2980    -2.0340    -0.4440 c2         1 JHH      -0.191200
     20 C5          -3.2510    -0.5700    -0.8510 c5         1 JHH      -0.024500
     21 C6          -2.2870     0.1830     0.0880 c5         1 JHH      -0.064700
     22 C7          -2.1860    -4.1410     0.3130 c3         1 JHH      -0.049900
     23 C8           0.2200     0.2980     0.6440 c5         1 JHH      -0.040700
     24 C9           0.8580    -0.8790     1.4670 c5         1 JHH      -0.083700
     25 O14         -5.3630    -0.2830     0.4640 oh         1 JHH      -0.648000
     26 O15         -1.9270     2.6450     0.3040 oh         1 JHH      -0.643000
     27 O19          2.2780    -1.1330    -0.5550 os         1 JHH      -0.458000
     28 O24          3.4740     2.1570     0.5960 os         1 JHH      -0.447100
     29 O27          1.5490     2.8700     1.5270 o          1 JHH      -0.501000
     30 H1          -0.6550    -0.2210    -1.3660 hc         1 JHH       0.044700
     31 H2          -1.1440    -1.4950     2.2050 hc         1 JHH       0.049700
     32 H3          -0.0790    -2.8580     1.9180 hc         1 JHH       0.049700
     33 H4          -5.1900     0.1660    -1.5490 h1         1 JHH       0.038700
     34 H5          -4.3640     1.9630     0.6790 hc         1 JHH       0.067700
     35 H6          -2.2190     1.6940    -1.5160 h1         1 JHH       0.021700
     36 H7          -5.8450     2.7500    -1.1350 hc         1 JHH       0.034700
     37 H8          -4.3960     3.7580    -1.0040 hc         1 JHH       0.034700
     38 H9          -4.5310     2.5670    -2.3100 hc         1 JHH       0.034700
     39 H10          0.7110     1.8220    -0.7840 hc         1 JHH       0.081700
     40 H11          1.5510     0.1040    -2.0100 h1         1 JHH       0.066700
     41 H12         -0.0870    -2.4160    -0.5660 hc         1 JHH       0.064700
     42 H13          2.4460    -3.1770     2.1020 hc         1 JHH       0.043367
     43 H14          1.8010    -3.4730     0.4820 hc         1 JHH       0.043367
     44 H15          3.5210    -3.1520     0.6960 hc         1 JHH       0.043367
     45 H16          5.1720     1.6950    -0.4800 h1         1 JHH       0.076700
     46 H17          3.2450     1.7910    -1.9920 hc         1 JHH       0.061700
     47 H18          3.7150    -0.1420    -3.4060 hc         1 JHH       0.041033
     48 H19          5.2250     0.4710    -2.7210 hc         1 JHH       0.041033
     49 H20          4.4940    -1.0090    -2.0820 hc         1 JHH       0.041033
     50 H21          3.1010     0.1940     2.2450 hc         1 JHH       0.051700
     51 H22          3.9500    -1.2860     2.2960 hc         1 JHH       0.051700
     52 H23          5.0600    -0.8040     0.1310 hc         1 JHH       0.054700
     53 H24          5.3940     0.3270     1.4080 hc         1 JHH       0.054700
     54 H25         -4.2370    -2.5850    -0.5150 ha         1 JHH       0.181000
     55 H26         -2.9540    -0.4930    -1.9050 hc         1 JHH       0.054700
     56 H27         -2.5420     0.0770     1.1490 hc         1 JHH       0.088700
     57 H28         -1.9440    -4.3050     1.3690 hc         1 JHH       0.038700
     58 H29         -3.1650    -4.5980     0.1280 hc         1 JHH       0.038700
     59 H30         -1.4490    -4.6870    -0.2890 hc         1 JHH       0.038700
     60 H31         -0.2570     0.9910     1.3460 hc         1 JHH       0.095700
     61 H32          1.0690    -0.5550     2.4920 hc         1 JHH       0.061700
     62 H33         -6.1590     0.2870     0.5250 ho         1 JHH       0.439000
     63 H34         -2.2540     3.4960    -0.0570 ho         1 JHH       0.443000
@<TRIPOS>BOND
     1     1     9 1   
     2     1    21 1   
     3     1    23 1   
     4     1    30 1   
     5     2     9 1   
     6     2    24 1   
     7     2    31 1   
     8     2    32 1   
     9     3     4 1   
    10     3    20 1   
    11     3    25 1   
    12     3    33 1   
    13     4     5 1   
    14     4     6 1   
    15     4    34 1   
    16     5    21 1   
    17     5    26 1   
    18     5    35 1   
    19     6    36 1   
    20     6    37 1   
    21     6    38 1   
    22     7     8 1   
    23     7    12 1   
    24     7    23 1   
    25     7    39 1   
    26     8    14 1   
    27     8    27 1   
    28     8    40 1   
    29     9    17 1   
    30     9    41 1   
    31    10    11 1   
    32    10    16 1   
    33    10    24 1   
    34    10    27 1   
    35    11    42 1   
    36    11    43 1   
    37    11    44 1   
    38    12    28 1   
    39    12    29 2   
    40    13    14 1   
    41    13    18 1   
    42    13    28 1   
    43    13    45 1   
    44    14    15 1   
    45    14    46 1   
    46    15    47 1   
    47    15    48 1   
    48    15    49 1   
    49    16    18 1   
    50    16    50 1   
    51    16    51 1   
    52    17    19 2   
    53    17    22 1   
    54    18    52 1   
    55    18    53 1   
    56    19    20 1   
    57    19    54 1   
    58    20    21 1   
    59    20    55 1   
    60    21    56 1   
    61    22    57 1   
    62    22    58 1   
    63    22    59 1   
    64    23    24 1   
    65    23    60 1   
    66    24    61 1   
    67    25    62 1   
    68    26    63 1   
@<TRIPOS>SUBSTRUCTURE
     1 JHH         1 TEMP              0 ****  ****    0 ROOT
