@<TRIPOS>MOLECULE
JHH
   63    68     1     0     0
SMALL
abcg2


@<TRIPOS>ATOM
      1 C1          -0.8720    -0.3670    -0.1620 c5         1 JHH      -0.038700
      2 C10         -0.2140    -2.0200     1.4780 c5         1 JHH      -0.065400
      3 C11         -4.5700     0.2930    -0.4600 c5         1 JHH       0.180300
      4 C12         -4.0540     1.7540    -0.4800 c5         1 JHH      -0.144700
      5 C13         -2.5080     1.6650    -0.3290 c5         1 JHH       0.176300
      6 C16         -4.4700     2.5040    -1.7380 c3         1 JHH      -0.086100
      7 C17          1.2160     1.0870    -0.0310 c6         1 JHH      -0.190700
      8 C18          1.9830     0.2180    -1.0290 c6         1 JHH       0.190300
      9 C2          -0.8700    -1.8910     0.1030 c5         1 JHH      -0.025500
     10 C20          2.2410    -1.3460     0.8350 c6         1 JHH       0.199000
     11 C22          2.5540    -2.8340     0.9280 c3         1 JHH      -0.079100
     12 C23          2.0480     2.0060     0.8480 c          1 JHH       0.669100
     13 C25          4.0810     1.2120    -0.1900 c6         1 JHH       0.196300
     14 C26          3.2870     0.8800    -1.4380 c6         1 JHH      -0.118700
     15 C28          4.0860     0.0620    -2.4420 c3         1 JHH      -0.076100
     16 C29          3.3870    -0.5740     1.5480 c3         1 JHH      -0.108400
     17 C3          -2.1940    -2.6000    -0.0200 c2         1 JHH      -0.113400
     18 C30          4.4880     0.0220     0.6790 c3         1 JHH      -0.086400
     19 C4          -3.3070    -1.9750    -0.4090 c2         1 JHH      -0.191200
     20 C5          -3.3060    -0.5160    -0.7190 c5         1 JHH      -0.024500
     21 C6          -2.2480     0.2230     0.0870 c5         1 JHH      -0.064700
     22 C7          -2.1760    -4.0700     0.2740 c3         1 JHH      -0.049900
     23 C8           0.2270     0.2290     0.7620 c5         1 JHH      -0.040700
     24 C9           0.8890    -0.9640     1.4930 c5         1 JHH      -0.083700
     25 O14         -5.0900    -0.0920     0.7950 oh         1 JHH      -0.648000
     26 O15         -1.9610     2.5780     0.5920 oh         1 JHH      -0.643000
     27 O19          2.1960    -1.0960    -0.5650 os         1 JHH      -0.458000
     28 O24          3.3500     2.1550     0.6170 os         1 JHH      -0.447100
     29 O27          1.5460     2.6900     1.7060 o          1 JHH      -0.501000
     30 H1          -0.6340    -0.1880    -1.2170 hc         1 JHH       0.044700
     31 H2          -0.9460    -1.7720     2.2540 hc         1 JHH       0.049700
     32 H3           0.1390    -3.0260     1.7020 hc         1 JHH       0.049700
     33 H4          -5.3210     0.1340    -1.2460 h1         1 JHH       0.038700
     34 H5          -4.4520     2.2810     0.3930 hc         1 JHH       0.067700
     35 H6          -2.0570     1.8180    -1.3230 h1         1 JHH       0.021700
     36 H7          -5.5550     2.5770    -1.8190 hc         1 JHH       0.034700
     37 H8          -4.0690     3.5190    -1.7470 hc         1 JHH       0.034700
     38 H9          -4.1020     2.0010    -2.6350 hc         1 JHH       0.034700
     39 H10          0.6280     1.8040    -0.6180 hc         1 JHH       0.081700
     40 H11          1.3600     0.1130    -1.9220 h1         1 JHH       0.066700
     41 H12         -0.1970    -2.3600    -0.6250 hc         1 JHH       0.064700
     42 H13          2.5150    -3.1690     1.9650 hc         1 JHH       0.043367
     43 H14          1.8560    -3.4400     0.3490 hc         1 JHH       0.043367
     44 H15          3.5610    -3.0310     0.5550 hc         1 JHH       0.043367
     45 H16          4.9850     1.7520    -0.4790 h1         1 JHH       0.076700
     46 H17          3.0250     1.8310    -1.9180 hc         1 JHH       0.061700
     47 H18          3.5140    -0.0720    -3.3610 hc         1 JHH       0.041033
     48 H19          5.0150     0.5710    -2.7030 hc         1 JHH       0.041033
     49 H20          4.3400    -0.9280    -2.0660 hc         1 JHH       0.041033
     50 H21          2.9830     0.2000     2.2050 hc         1 JHH       0.051700
     51 H22          3.8660    -1.2660     2.2440 hc         1 JHH       0.051700
     52 H23          4.9420    -0.7420     0.0450 hc         1 JHH       0.054700
     53 H24          5.2830     0.3560     1.3500 hc         1 JHH       0.054700
     54 H25         -4.2250    -2.5420    -0.5350 ha         1 JHH       0.181000
     55 H26         -3.0750    -0.3810    -1.7880 hc         1 JHH       0.054700
     56 H27         -2.4990     0.1210     1.1510 hc         1 JHH       0.088700
     57 H28         -1.9370    -4.2670     1.3220 hc         1 JHH       0.038700
     58 H29         -3.1380    -4.5360     0.0580 hc         1 JHH       0.038700
     59 H30         -1.4120    -4.5800    -0.3190 hc         1 JHH       0.038700
     60 H31         -0.2580     0.8660     1.5000 hc         1 JHH       0.095700
     61 H32          1.1040    -0.6970     2.5310 hc         1 JHH       0.061700
     62 H33         -5.8100     0.5060     1.0180 ho         1 JHH       0.439000
     63 H34         -2.0060     3.4600     0.2120 ho         1 JHH       0.443000
@<TRIPOS>BOND
     1     1     9 1   
     2     1    21 1   
     3     1    23 1   
     4     1    30 1   
     5     2     9 1   
     6     2    24 1   
     7     2    31 1   
     8     2    32 1   
     9     3     4 1   
    10     3    20 1   
    11     3    25 1   
    12     3    33 1   
    13     4     5 1   
    14     4     6 1   
    15     4    34 1   
    16     5    21 1   
    17     5    26 1   
    18     5    35 1   
    19     6    36 1   
    20     6    37 1   
    21     6    38 1   
    22     7     8 1   
    23     7    12 1   
    24     7    23 1   
    25     7    39 1   
    26     8    14 1   
    27     8    27 1   
    28     8    40 1   
    29     9    17 1   
    30     9    41 1   
    31    10    11 1   
    32    10    16 1   
    33    10    24 1   
    34    10    27 1   
    35    11    42 1   
    36    11    43 1   
    37    11    44 1   
    38    12    28 1   
    39    12    29 2   
    40    13    14 1   
    41    13    18 1   
    42    13    28 1   
    43    13    45 1   
    44    14    15 1   
    45    14    46 1   
    46    15    47 1   
    47    15    48 1   
    48    15    49 1   
    49    16    18 1   
    50    16    50 1   
    51    16    51 1   
    52    17    19 2   
    53    17    22 1   
    54    18    52 1   
    55    18    53 1   
    56    19    20 1   
    57    19    54 1   
    58    20    21 1   
    59    20    55 1   
    60    21    56 1   
    61    22    57 1   
    62    22    58 1   
    63    22    59 1   
    64    23    24 1   
    65    23    60 1   
    66    24    61 1   
    67    25    62 1   
    68    26    63 1   
@<TRIPOS>SUBSTRUCTURE
     1 JHH         1 TEMP              0 ****  ****    0 ROOT
