@<TRIPOS>MOLECULE
JHI
   32    34     1     0     0
SMALL
No Charge or Current Charge


@<TRIPOS>ATOM
      1 C10         25.3430   -44.6160   -14.2350 c5         1 JHI       0.220800
      2 C11         28.2480   -45.0100   -14.7000 cc         1 JHI      -0.166000
      3 C13         30.1290   -44.2650   -15.6960 cc         1 JHI      -0.111300
      4 C16         28.9750   -43.4020   -17.8450 c3         1 JHI      -0.013900
      5 C17         31.5830   -43.9450   -15.9340 c3         1 JHI      -0.013900
      6 C1          27.5030   -45.6320   -13.6400 cc         1 JHI       0.456000
      7 C2          28.2430   -46.0970   -12.5810 cd         1 JHI      -0.342000
      8 C3          29.6610   -45.8990   -12.5900 cd         1 JHI       0.472000
      9 N4          30.3830   -45.3060   -13.5400 nc         1 JHI      -0.524800
     10 Cl5         30.5330   -46.5000   -11.2180 cl         1 JHI      -0.155000
     11 N6          26.1160   -45.7890   -13.7360 nh         1 JHI      -0.792400
     12 C7          25.4050   -46.5240   -12.6550 c5         1 JHI       0.220800
     13 C8          23.9430   -46.1400   -12.9890 c5         1 JHI      -0.095900
     14 C9          24.1050   -44.6270   -13.2960 c5         1 JHI      -0.095900
     15 N12         29.6040   -44.8770   -14.5880 na         1 JHI       0.267900
     16 C14         29.0180   -44.0470   -16.4840 cd         1 JHI       0.038400
     17 N15         27.8640   -44.5110   -15.8700 nd         1 JHI      -0.279600
     18 H26         25.8900   -43.6640   -14.1590 h1         1 JHI       0.062950
     19 H25         25.0470   -44.7610   -15.2840 h1         1 JHI       0.062950
     20 H29         27.9530   -43.3660   -18.2410 hc         1 JHI       0.045033
     21 H27         29.3520   -42.3740   -17.8010 hc         1 JHI       0.045033
     22 H28         29.5920   -43.9580   -18.5600 hc         1 JHI       0.045033
     23 H31         32.1860   -44.8600   -15.9510 hc         1 JHI       0.052033
     24 H30         31.7280   -43.4310   -16.8910 hc         1 JHI       0.052033
     25 H32         31.9750   -43.2950   -15.1420 hc         1 JHI       0.052033
     26 H18         27.7990   -46.6070   -11.7390 ha         1 JHI       0.141000
     27 H19         25.5680   -47.6100   -12.6970 h1         1 JHI       0.062950
     28 H20         25.6740   -46.1600   -11.6530 h1         1 JHI       0.062950
     29 H21         23.5720   -46.6930   -13.8610 hc         1 JHI       0.058450
     30 H22         23.2600   -46.3350   -12.1560 hc         1 JHI       0.058450
     31 H23         23.2200   -44.1900   -13.7710 hc         1 JHI       0.058450
     32 H24         24.3010   -44.0550   -12.3810 hc         1 JHI       0.058450
@<TRIPOS>BOND
     1     1    11 1   
     2     1    14 1   
     3     1    18 1   
     4     1    19 1   
     5     2     6 1   
     6     2    15 1   
     7     2    17 2   
     8     3     5 1   
     9     3    15 1   
    10     3    16 2   
    11     4    16 1   
    12     4    20 1   
    13     4    21 1   
    14     4    22 1   
    15     5    23 1   
    16     5    24 1   
    17     5    25 1   
    18     6     7 2   
    19     6    11 1   
    20     7     8 1   
    21     7    26 1   
    22     8     9 2   
    23     8    10 1   
    24     9    15 1   
    25    11    12 1   
    26    12    13 1   
    27    12    27 1   
    28    12    28 1   
    29    13    14 1   
    30    13    29 1   
    31    13    30 1   
    32    14    31 1   
    33    14    32 1   
    34    16    17 1   
@<TRIPOS>SUBSTRUCTURE
     1 JHI         1 TEMP              0 ****  ****    0 ROOT
