@<TRIPOS>MOLECULE
JHI
   32    34     1     0     0
SMALL
bcc


@<TRIPOS>ATOM
      1 C10         25.2870   -44.7890   -14.4030 c5         1 JHI       0.220800
      2 C11         28.2550   -44.8660   -14.6130 cc         1 JHI      -0.115300
      3 C13         30.1080   -44.3030   -15.6870 cc         1 JHI      -0.111300
      4 C16         28.9370   -43.1020   -17.6360 c3         1 JHI      -0.013900
      5 C17         31.5540   -44.1900   -15.9840 c3         1 JHI      -0.013900
      6 C1          27.5290   -45.4840   -13.5460 cc         1 JHI       0.317600
      7 C2          28.3190   -46.1050   -12.5750 cd         1 JHI      -0.425300
      8 C3          29.7090   -46.0800   -12.7100 cd         1 JHI       0.537300
      9 N4          30.3970   -45.5320   -13.6610 nc         1 JHI      -0.524800
     10 CL5         30.6520   -46.8570   -11.4860 cl         1 JHI      -0.155000
     11 N6          26.1960   -45.4760   -13.4850 nh         1 JHI      -0.654000
     12 C7          25.4770   -46.1810   -12.4290 c5         1 JHI       0.220800
     13 C8          24.0230   -46.1240   -12.8790 c5         1 JHI      -0.095900
     14 C9          23.9570   -44.8200   -13.6620 c5         1 JHI      -0.095900
     15 N12         29.6280   -44.9390   -14.5840 na         1 JHI       0.217200
     16 C14         28.9830   -43.8620   -16.3550 cd         1 JHI       0.038400
     17 N15         27.8580   -44.2130   -15.6890 nd         1 JHI      -0.279600
     18 H26         25.6280   -43.7790   -14.6150 h1         1 JHI       0.062950
     19 H25         25.2260   -45.3250   -15.3540 h1         1 JHI       0.062950
     20 H29         27.9050   -42.9000   -17.9150 hc         1 JHI       0.045033
     21 H27         29.4560   -42.1460   -17.5580 hc         1 JHI       0.045033
     22 H28         29.4020   -43.6560   -18.4520 hc         1 JHI       0.045033
     23 H31         32.0170   -45.1670   -16.1360 hc         1 JHI       0.052033
     24 H30         31.7000   -43.6070   -16.8920 hc         1 JHI       0.052033
     25 H32         32.0970   -43.6940   -15.1780 hc         1 JHI       0.052033
     26 H18         27.8830   -46.5940   -11.7180 ha         1 JHI       0.159000
     27 H19         25.8380   -47.2070   -12.3250 h1         1 JHI       0.062950
     28 H20         25.6210   -45.6790   -11.4660 h1         1 JHI       0.062950
     29 H21         23.7990   -46.9710   -13.5300 hc         1 JHI       0.058450
     30 H22         23.3350   -46.1590   -12.0360 hc         1 JHI       0.058450
     31 H23         23.1100   -44.7680   -14.3450 hc         1 JHI       0.058450
     32 H24         23.8870   -43.9700   -12.9790 hc         1 JHI       0.058450
@<TRIPOS>BOND
     1     1    11 1   
     2     1    14 1   
     3     1    18 1   
     4     1    19 1   
     5     2     6 1   
     6     2    15 1   
     7     2    17 2   
     8     3     5 1   
     9     3    15 1   
    10     3    16 2   
    11     4    16 1   
    12     4    20 1   
    13     4    21 1   
    14     4    22 1   
    15     5    23 1   
    16     5    24 1   
    17     5    25 1   
    18     6     7 2   
    19     6    11 1   
    20     7     8 1   
    21     7    26 1   
    22     8     9 2   
    23     8    10 1   
    24     9    15 1   
    25    11    12 1   
    26    12    13 1   
    27    12    27 1   
    28    12    28 1   
    29    13    14 1   
    30    13    29 1   
    31    13    30 1   
    32    14    31 1   
    33    14    32 1   
    34    16    17 1   
@<TRIPOS>SUBSTRUCTURE
     1 JHI         1 TEMP              0 ****  ****    0 ROOT
