@<TRIPOS>MOLECULE
JHJ
   31    32     1     0     0
SMALL
No Charge or Current Charge


@<TRIPOS>ATOM
      1 C10          0.9330    -0.1450     0.0750 c          1 JHJ       0.666100
      2 N12          2.1110     0.5810    -0.0210 ns         1 JHJ      -0.162000
      3 C13          3.4770     0.1960     0.0440 ca         1 JHJ       0.036000
      4 C15          5.8170     0.8400    -0.0320 ca         1 JHJ       0.358900
      5 C17          5.3000    -1.3920     0.2850 ca         1 JHJ       0.358900
      6 C01         -6.4220    -1.3510     0.2000 c3         1 JHJ       0.147900
      7 C03         -4.3900     0.0390     0.0120 ca         1 JHJ       0.130100
      8 C04         -3.5250    -1.0630     0.1790 ca         1 JHJ      -0.152500
      9 C05         -2.1310    -0.8780     0.1620 ca         1 JHJ      -0.090000
     10 C06         -1.5810     0.4110    -0.0220 ca         1 JHJ      -0.065000
     11 C07         -2.4530     1.5040    -0.1880 ca         1 JHJ      -0.090000
     12 C08         -3.8460     1.3180    -0.1710 ca         1 JHJ      -0.152500
     13 C14          4.4590     1.1890    -0.0920 ca         1 JHJ      -0.214000
     14 C18          3.9220    -1.1270     0.2380 ca         1 JHJ      -0.214000
     15 N09         -0.1810     0.6760    -0.0510 ns         1 JHJ      -0.164000
     16 N16          6.2410    -0.4300     0.1530 nb         1 JHJ      -0.683000
     17 O11          0.8830    -1.3580     0.2490 o          1 JHJ      -0.598100
     18 H121         1.9760     1.5730    -0.1640 hn         1 JHJ       0.148000
     19 H151         6.5910     1.5990    -0.1360 h4         1 JHJ       0.018100
     20 H171         5.6630    -2.4080     0.4340 h4         1 JHJ       0.018100
     21 H013        -7.5110    -1.2210     0.1740 h1         1 JHJ       0.041700
     22 H012        -6.1440    -2.0510    -0.5970 h1         1 JHJ       0.041700
     23 H011        -6.1560    -1.7940     1.1690 h1         1 JHJ       0.041700
     24 H041        -3.9140    -2.0670     0.3230 ha         1 JHJ       0.125000
     25 H051        -1.4990    -1.7500     0.2940 ha         1 JHJ       0.123000
     26 H071        -2.0510     2.5050    -0.3310 ha         1 JHJ       0.123000
     27 H081        -4.5070     2.1710    -0.3000 ha         1 JHJ       0.125000
     28 H141         4.1840     2.2290    -0.2430 ha         1 JHJ       0.136500
     29 H181         3.2350    -1.9570     0.3520 ha         1 JHJ       0.136500
     30 H091         0.0420     1.6520    -0.1900 hn         1 JHJ       0.148000
     31 O02         -5.7650    -0.0830     0.0200 os         1 JHJ      -0.341100
@<TRIPOS>BOND
     1     1     2 1   
     2     1    15 1   
     3     1    17 2   
     4     2     3 1   
     5     2    18 1   
     6     3    13 ar  
     7     3    14 ar  
     8     4    13 ar  
     9     4    16 ar  
    10     4    19 1   
    11     5    14 ar  
    12     5    16 ar  
    13     5    20 1   
    14     6    21 1   
    15     6    22 1   
    16     6    23 1   
    17     6    31 1   
    18     7     8 ar  
    19     7    12 ar  
    20     7    31 1   
    21     8     9 ar  
    22     8    24 1   
    23     9    10 ar  
    24     9    25 1   
    25    10    11 ar  
    26    10    15 1   
    27    11    12 ar  
    28    11    26 1   
    29    12    27 1   
    30    13    28 1   
    31    14    29 1   
    32    15    30 1   
@<TRIPOS>SUBSTRUCTURE
     1 JHJ         1 TEMP              0 ****  ****    0 ROOT
