@<TRIPOS>MOLECULE
JHJ
   31    32     1     0     0
SMALL
abcg2


@<TRIPOS>ATOM
      1 C10          0.8590     0.1070     0.0830 c          1 JHJ       0.666100
      2 N12          2.0680     0.7540     0.2080 ns         1 JHJ      -0.162000
      3 C13          3.3380     0.2230     0.0960 ca         1 JHJ       0.036000
      4 C15          5.7040     0.6160     0.1640 ca         1 JHJ       0.358900
      5 C17          4.9780    -1.4800    -0.2480 ca         1 JHJ       0.358900
      6 C01         -6.1370    -1.4900     0.2040 c3         1 JHJ       0.147900
      7 C03         -4.2630    -0.0810    -0.1580 ca         1 JHJ       0.130100
      8 C04         -3.4000    -0.9310     0.5270 ca         1 JHJ      -0.152500
      9 C05         -2.0560    -0.6030     0.6690 ca         1 JHJ      -0.090000
     10 C06         -1.5480     0.5630     0.1110 ca         1 JHJ      -0.065000
     11 C07         -2.4170     1.4100    -0.5740 ca         1 JHJ      -0.090000
     12 C08         -3.7580     1.1010    -0.7000 ca         1 JHJ      -0.152500
     13 C14          4.4160     1.0990     0.2640 ca         1 JHJ      -0.214000
     14 C18          3.6430    -1.1140    -0.1700 ca         1 JHJ      -0.214000
     15 N09         -0.2020     0.9460     0.2520 ns         1 JHJ      -0.164000
     16 N16          6.0050    -0.6550    -0.0880 nb         1 JHJ      -0.683000
     17 O11          0.7510    -1.0840    -0.1390 o          1 JHJ      -0.598100
     18 H121         2.0420     1.7430     0.4070 hn         1 JHJ       0.148000
     19 H151         6.5380     1.2970     0.2980 h4         1 JHJ       0.018100
     20 H171         5.2190    -2.5170    -0.4540 h4         1 JHJ       0.018100
     21 H013        -7.1930    -1.4810    -0.0540 h1         1 JHJ       0.041700
     22 H012        -5.6810    -2.3910    -0.2130 h1         1 JHJ       0.041700
     23 H011        -6.0440    -1.5210     1.2930 h1         1 JHJ       0.041700
     24 H041        -3.7490    -1.8510     0.9740 ha         1 JHJ       0.125000
     25 H051        -1.4190    -1.2690     1.2320 ha         1 JHJ       0.123000
     26 H071        -2.0420     2.3260    -1.0140 ha         1 JHJ       0.123000
     27 H081        -4.4190     1.7730    -1.2320 ha         1 JHJ       0.125000
     28 H141         4.2520     2.1500     0.4690 ha         1 JHJ       0.136500
     29 H181         2.8820    -1.8600    -0.3130 ha         1 JHJ       0.136500
     30 H091        -0.0300     1.9400     0.2740 hn         1 JHJ       0.148000
     31 O02         -5.5790    -0.3120    -0.3400 os         1 JHJ      -0.341100
@<TRIPOS>BOND
     1     1     2 1   
     2     1    15 1   
     3     1    17 2   
     4     2     3 1   
     5     2    18 1   
     6     3    13 ar  
     7     3    14 ar  
     8     4    13 ar  
     9     4    16 ar  
    10     4    19 1   
    11     5    14 ar  
    12     5    16 ar  
    13     5    20 1   
    14     6    21 1   
    15     6    22 1   
    16     6    23 1   
    17     6    31 1   
    18     7     8 ar  
    19     7    12 ar  
    20     7    31 1   
    21     8     9 ar  
    22     8    24 1   
    23     9    10 ar  
    24     9    25 1   
    25    10    11 ar  
    26    10    15 1   
    27    11    12 ar  
    28    11    26 1   
    29    12    27 1   
    30    13    28 1   
    31    14    29 1   
    32    15    30 1   
@<TRIPOS>SUBSTRUCTURE
     1 JHJ         1 TEMP              0 ****  ****    0 ROOT
