@<TRIPOS>MOLECULE
JHK
   46    49     1     0     0
SMALL
abcg2


@<TRIPOS>ATOM
      1 C5          -9.1230   -10.4720    11.4000 ca         1 JHK      -0.073000
      2 C6          -8.0510   -11.1200    10.7340 ca         1 JHK      -0.063000
      3 C7          -7.2310   -11.9760    11.5150 ca         1 JHK       0.361900
      4 C10         -9.2770   -10.6750    12.7870 ca         1 JHK      -0.134000
      5 C13         -6.0420   -12.7720     6.6280 ca         1 JHK      -0.111500
      6 C15         -4.4330   -11.8800     8.1670 ca         1 JHK      -0.111500
      7 C17         -3.6180   -13.2060     6.2190 cc         1 JHK      -0.163000
      8 C21         -3.6900   -13.7800     4.9570 cd         1 JHK      -0.123000
      9 C26         -1.2320   -16.7940     1.4190 c3         1 JHK       0.085800
     10 C1          -8.8330   -10.1070     8.7110 ca         1 JHK       0.323900
     11 C11         -6.7950   -11.5010     8.5490 cp         1 JHK      -0.057000
     12 C12         -7.0670   -12.2220     7.3810 ca         1 JHK      -0.090500
     13 C14         -5.4580   -11.3360     8.9240 ca         1 JHK      -0.090500
     14 C16         -4.7010   -12.6160     7.0050 ca         1 JHK       0.034000
     15 C18         -2.2500   -13.3360     6.5670 cc         1 JHK       0.269900
     16 C2          -7.8970   -10.9060     9.3340 cp         1 JHK      -0.042000
     17 C23         -2.2260   -16.4490     3.6750 c          1 JHK       0.583100
     18 C27         -1.9390   -18.6960     2.7950 c3         1 JHK       0.085800
     19 C3         -10.0000    -9.6670    10.6340 ca         1 JHK       0.353900
     20 C9          -8.4020   -11.5040    13.4360 ca         1 JHK       0.322900
     21 N19         -1.5530   -13.9360     5.6100 nd         1 JHK      -0.515800
     22 N20         -2.4480   -14.1890     4.6300 na         1 JHK       0.128800
     23 N25         -1.8040   -17.2500     2.6780 n          1 JHK      -0.416800
     24 N4          -9.8680    -9.4970     9.3390 nb         1 JHK      -0.650000
     25 N8          -7.3950   -12.1640    12.8050 nb         1 JHK      -0.657000
     26 O24         -2.7340   -16.8710     4.7130 o          1 JHK      -0.579100
     27 H1          -6.4310   -12.5290    11.0400 h4         1 JHK       0.033100
     28 H2         -10.0810   -10.1860    13.3220 ha         1 JHK       0.126000
     29 H3          -6.2900   -13.3440     5.7440 ha         1 JHK       0.114000
     30 H4          -3.4090   -11.7200     8.4790 ha         1 JHK       0.114000
     31 H5          -4.5150   -13.9180     4.2780 h4         1 JHK       0.153000
     32 H6          -1.0100   -14.6940     3.2550 h1         1 JHK       0.082200
     33 H7          -2.6550   -14.6050     2.6190 h1         1 JHK       0.082200
     34 H8          -1.1970   -15.7130     1.3570 h1         1 JHK       0.045200
     35 H9          -0.2170   -17.1840     1.3100 h1         1 JHK       0.045200
     36 H10         -1.8350   -17.1660     0.5870 h1         1 JHK       0.045200
     37 H11         -8.7520    -9.9180     7.6470 h4         1 JHK       0.025100
     38 H12         -8.0950   -12.3700     7.0740 ha         1 JHK       0.116500
     39 H13         -5.2170   -10.7600     9.8080 ha         1 JHK       0.116500
     40 H14         -1.7540   -13.0130     7.4690 h4         1 JHK       0.040100
     41 H15         -2.2870   -18.9480     3.7900 h1         1 JHK       0.045200
     42 H16         -2.6510   -19.0680     2.0540 h1         1 JHK       0.045200
     43 H17         -0.9710   -19.1660     2.6120 h1         1 JHK       0.045200
     44 H18        -10.8260    -9.1650    11.1290 h4         1 JHK       0.024100
     45 H19         -8.4910   -11.6810    14.5010 h4         1 JHK       0.023100
     46 C22         -2.0500   -14.9350     3.4640 c3         1 JHK       0.009600
@<TRIPOS>BOND
     1     1     2 ar  
     2     1     4 ar  
     3     1    19 ar  
     4     2     3 ar  
     5     2    16 ar  
     6     3    25 ar  
     7     3    27 1   
     8     4    20 ar  
     9     4    28 1   
    10     5    12 ar  
    11     5    14 ar  
    12     5    29 1   
    13     6    13 ar  
    14     6    14 ar  
    15     6    30 1   
    16     7     8 2   
    17     7    14 1   
    18     7    15 1   
    19     8    22 1   
    20     8    31 1   
    21     9    23 1   
    22     9    34 1   
    23     9    35 1   
    24     9    36 1   
    25    10    16 ar  
    26    10    24 ar  
    27    10    37 1   
    28    11    12 ar  
    29    11    13 ar  
    30    11    16 1   
    31    12    38 1   
    32    13    39 1   
    33    15    21 2   
    34    15    40 1   
    35    17    23 1   
    36    17    26 2   
    37    17    46 1   
    38    18    23 1   
    39    18    41 1   
    40    18    42 1   
    41    18    43 1   
    42    19    24 ar  
    43    19    44 1   
    44    20    25 ar  
    45    20    45 1   
    46    21    22 1   
    47    22    46 1   
    48    32    46 1   
    49    33    46 1   
@<TRIPOS>SUBSTRUCTURE
     1 JHK         1 TEMP              0 ****  ****    0 ROOT
