@<TRIPOS>MOLECULE
JHK
   46    49     1     0     0
SMALL
No Charge or Current Charge


@<TRIPOS>ATOM
      1 C5          -9.1740   -10.4750    11.3720 ca         1 JHK      -0.073000
      2 C6          -8.0950   -11.1160    10.7290 ca         1 JHK      -0.063000
      3 C7          -7.2900   -11.9930    11.4920 ca         1 JHK       0.361900
      4 C10         -9.3850   -10.7180    12.7410 ca         1 JHK      -0.134000
      5 C13         -5.9580   -12.7590     6.6410 ca         1 JHK      -0.111500
      6 C15         -4.3600   -11.8510     8.2230 ca         1 JHK      -0.111500
      7 C17         -3.4980   -13.1650     6.2920 cc         1 JHK      -0.163000
      8 C21         -3.6590   -13.8910     5.1460 cd         1 JHK      -0.123000
      9 C26         -1.2400   -16.7760     1.3660 c3         1 JHK       0.085800
     10 C1          -8.8010    -9.9970     8.6960 ca         1 JHK       0.323900
     11 C11         -6.7590   -11.4690     8.5690 cp         1 JHK      -0.057000
     12 C12         -7.0100   -12.2010     7.3870 ca         1 JHK      -0.090500
     13 C14         -5.4140   -11.2950     8.9670 ca         1 JHK      -0.090500
     14 C16         -4.6170   -12.5930     7.0520 ca         1 JHK       0.034000
     15 C18         -2.1140   -13.1090     6.5340 cc         1 JHK       0.269900
     16 C2          -7.8840   -10.8660     9.3440 cp         1 JHK      -0.042000
     17 C23         -2.2540   -16.5160     3.6740 c          1 JHK       0.583100
     18 C27         -2.1050   -18.8000     2.6340 c3         1 JHK       0.085800
     19 C3         -10.0130    -9.6200    10.6320 ca         1 JHK       0.353900
     20 C9          -8.5230   -11.5960    13.4190 ca         1 JHK       0.322900
     21 N19         -1.3890   -13.7400     5.6320 nd         1 JHK      -0.515800
     22 N20         -2.3560   -14.2380     4.7670 na         1 JHK       0.128800
     23 N25         -1.8660   -17.3380     2.5870 n          1 JHK      -0.416800
     24 N4          -9.8390    -9.3820     9.3120 nb         1 JHK      -0.650000
     25 N8          -7.4940   -12.2310    12.8120 nb         1 JHK      -0.657000
     26 O24         -2.7960   -17.0120     4.6560 o          1 JHK      -0.579100
     27 H1          -6.4620   -12.5370    11.0430 h4         1 JHK       0.033100
     28 H2         -10.2020   -10.2430    13.2770 ha         1 JHK       0.126000
     29 H3          -6.2000   -13.3190     5.7440 ha         1 JHK       0.114000
     30 H4          -3.3400   -11.6970     8.5640 ha         1 JHK       0.114000
     31 H5          -4.5350   -14.1880     4.5840 h4         1 JHK       0.153000
     32 H6          -0.9010   -14.8700     3.3890 h1         1 JHK       0.082200
     33 H7          -2.5220   -14.6130     2.7110 h1         1 JHK       0.082200
     34 H8          -1.9010   -16.0220     0.9190 h1         1 JHK       0.045200
     35 H9          -0.2790   -16.3110     1.6200 h1         1 JHK       0.045200
     36 H10         -1.0600   -17.5620     0.6230 h1         1 JHK       0.045200
     37 H11         -8.6830    -9.7770     7.6350 h4         1 JHK       0.025100
     38 H12         -8.0350   -12.3450     7.0500 ha         1 JHK       0.116500
     39 H13         -5.1860   -10.7150     9.8590 ha         1 JHK       0.116500
     40 H14         -1.6070   -12.6170     7.3520 h4         1 JHK       0.040100
     41 H15         -1.6580   -19.2200     3.5440 h1         1 JHK       0.045200
     42 H16         -3.1850   -18.9970     2.6400 h1         1 JHK       0.045200
     43 H17         -1.6590   -19.2990     1.7640 h1         1 JHK       0.045200
     44 H18        -10.8540    -9.1150    11.1070 h4         1 JHK       0.024100
     45 H19         -8.6650   -11.8040    14.4790 h4         1 JHK       0.023100
     46 C22         -1.9720   -15.0060     3.5730 c3         1 JHK       0.009600
@<TRIPOS>BOND
     1     1     2 ar  
     2     1     4 ar  
     3     1    19 ar  
     4     2     3 ar  
     5     2    16 ar  
     6     3    25 ar  
     7     3    27 1   
     8     4    20 ar  
     9     4    28 1   
    10     5    12 ar  
    11     5    14 ar  
    12     5    29 1   
    13     6    13 ar  
    14     6    14 ar  
    15     6    30 1   
    16     7     8 2   
    17     7    14 1   
    18     7    15 1   
    19     8    22 1   
    20     8    31 1   
    21     9    23 1   
    22     9    34 1   
    23     9    35 1   
    24     9    36 1   
    25    10    16 ar  
    26    10    24 ar  
    27    10    37 1   
    28    11    12 ar  
    29    11    13 ar  
    30    11    16 1   
    31    12    38 1   
    32    13    39 1   
    33    15    21 2   
    34    15    40 1   
    35    17    23 1   
    36    17    26 2   
    37    17    46 1   
    38    18    23 1   
    39    18    41 1   
    40    18    42 1   
    41    18    43 1   
    42    19    24 ar  
    43    19    44 1   
    44    20    25 ar  
    45    20    45 1   
    46    21    22 1   
    47    22    46 1   
    48    32    46 1   
    49    33    46 1   
@<TRIPOS>SUBSTRUCTURE
     1 JHK         1 TEMP              0 ****  ****    0 ROOT
