@<TRIPOS>MOLECULE
JHL
   71    76     1     0     0
SMALL
No Charge or Current Charge


@<TRIPOS>ATOM
      1 CAS         10.5190    -4.7460   -11.0040 c6         1 JHL      -0.088400
      2 CAT         11.6510    -5.6490   -11.5530 c6         1 JHL      -0.091900
      3 CAU         12.7210    -4.8250   -12.3160 c6         1 JHL       0.169300
      4 OAX         13.7330    -5.7250   -12.8170 os         1 JHL      -0.452000
      5 CAY         14.9120    -5.1420   -13.4030 c3         1 JHL       0.146900
      6 CAV         12.0630    -4.0000   -13.4610 c6         1 JHL      -0.091900
      7 CAW         10.9220    -3.0940   -12.9300 c6         1 JHL      -0.088400
      8 CAQ          9.8670    -3.9220   -12.1490 c6         1 JHL       0.089300
      9 NAP          8.7360    -3.0810   -11.6700 na         1 JHL      -0.165600
     10 CAK          8.7920    -2.0260   -10.7870 ca         1 JHL      -0.072200
     11 CAL          9.8660    -1.4920   -10.0570 ca         1 JHL      -0.112000
     12 CAM          9.6180    -0.3930    -9.2100 ca         1 JHL      -0.082000
     13 CAH          8.3210     0.1700    -9.0970 ca         1 JHL      -0.020000
     14 CAA          8.0700     1.3160    -8.2020 cc         1 JHL      -0.175000
     15 CAE          7.2250     2.3450    -8.5180 cd         1 JHL       0.199300
     16 CAG          6.3590     2.6210    -9.7190 c3         1 JHL      -0.139400
     17 OAD          7.3120     3.3240    -7.5630 os         1 JHL      -0.072700
     18 NAC          8.3030     2.9410    -6.5980 nd         1 JHL      -0.367300
     19 CAB          8.7320     1.7690    -7.0320 cc         1 JHL       0.291300
     20 CAF          9.7790     0.9880    -6.2870 c3         1 JHL      -0.134400
     21 CAI          7.2710    -0.4060    -9.8550 ca         1 JHL      -0.042000
     22 CAJ          7.5360    -1.5000   -10.6910 ca         1 JHL       0.063400
     23 NAN          6.6290    -2.1690   -11.4900 nc         1 JHL      -0.565100
     24 CAO          7.3820    -3.1280   -12.0750 cd         1 JHL       0.389800
     25 CAR          6.7710    -4.1060   -13.0870 c6         1 JHL       0.129400
     26 CBD          6.4720    -3.3600   -14.4150 c6         1 JHL      -0.087400
     27 CBC          5.5890    -4.1980   -15.3490 c6         1 JHL      -0.074400
     28 CBB          4.2590    -4.4870   -14.6330 c6         1 JHL      -0.157400
     29 CBA          4.4360    -5.1280   -13.2490 c          1 JHL       0.581000
     30 OBM          3.5810    -5.9090   -12.8480 o          1 JHL      -0.539000
     31 NAZ          5.6040    -4.8390   -12.4860 n          1 JHL      -0.249400
     32 CBE          5.8050    -5.3800   -11.1590 ca         1 JHL      -0.042000
     33 CBF          4.7520    -5.3790   -10.2180 ca         1 JHL      -0.102000
     34 CBG          4.8970    -6.0240    -8.9790 ca         1 JHL       0.136000
     35 FBL          3.8900    -5.9720    -8.0760 f          1 JHL      -0.157000
     36 CBH          6.0770    -6.7290    -8.6850 ca         1 JHL       0.133000
     37 FBK          6.2230    -7.3590    -7.4970 f          1 JHL      -0.159000
     38 CBI          7.0980    -6.8110    -9.6430 ca         1 JHL      -0.131000
     39 CBJ          6.9500    -6.1630   -10.8840 ca         1 JHL      -0.104000
     40 H1          10.9270    -4.0900   -10.2270 hc         1 JHL       0.057450
     41 H2           9.7600    -5.3670   -10.5100 hc         1 JHL       0.057450
     42 H3          11.2260    -6.4110   -12.2210 hc         1 JHL       0.055700
     43 H4          12.1250    -6.1900   -10.7230 hc         1 JHL       0.055700
     44 H5          13.1960    -4.1320   -11.6060 h1         1 JHL       0.033700
     45 H6          15.6430    -5.9250   -13.6420 h1         1 JHL       0.030033
     46 H7          14.6730    -4.6120   -14.3340 h1         1 JHL       0.030033
     47 H8          15.3850    -4.4350   -12.7090 h1         1 JHL       0.030033
     48 H9          11.6680    -4.6820   -14.2270 hc         1 JHL       0.055700
     49 H10         12.8110    -3.3690   -13.9570 hc         1 JHL       0.055700
     50 H11         11.3520    -2.3090   -12.2960 hc         1 JHL       0.057450
     51 H12         10.4390    -2.5790   -13.7720 hc         1 JHL       0.057450
     52 H13          9.4670    -4.6530   -12.8620 h1         1 JHL       0.062700
     53 H14         10.8720    -1.8920   -10.1320 ha         1 JHL       0.119000
     54 H15         10.4550     0.0370    -8.6700 ha         1 JHL       0.116000
     55 H16          6.1890     3.6980    -9.8390 hc         1 JHL       0.064367
     56 H17          6.8290     2.2610   -10.6420 hc         1 JHL       0.064367
     57 H18          5.3790     2.1420    -9.6180 hc         1 JHL       0.064367
     58 H19          9.7660     1.2380    -5.2200 hc         1 JHL       0.057033
     59 H20          9.6060    -0.0910    -6.3730 hc         1 JHL       0.057033
     60 H21         10.7810     1.2150    -6.6700 hc         1 JHL       0.057033
     61 H22          6.2530    -0.0420    -9.7770 ha         1 JHL       0.131000
     62 H23          7.5050    -4.8780   -13.3420 h1         1 JHL       0.049700
     63 H24          7.4160    -3.1050   -14.9160 hc         1 JHL       0.068200
     64 H25          5.9690    -2.4050   -14.2060 hc         1 JHL       0.068200
     65 H26          5.4060    -3.6560   -16.2880 hc         1 JHL       0.052200
     66 H27          6.0940    -5.1380   -15.6130 hc         1 JHL       0.052200
     67 H28          3.7720    -3.5200   -14.4520 hc         1 JHL       0.078200
     68 H29          3.5660    -5.0860   -15.2390 hc         1 JHL       0.078200
     69 H30          3.8270    -4.8500   -10.4290 ha         1 JHL       0.158000
     70 H31          7.9950    -7.3890    -9.4320 ha         1 JHL       0.137000
     71 H32          7.7320    -6.2810   -11.6280 ha         1 JHL       0.125000
@<TRIPOS>BOND
     1     1     2 1   
     2     1     8 1   
     3     1    40 1   
     4     1    41 1   
     5     2     3 1   
     6     2    42 1   
     7     2    43 1   
     8     3     4 1   
     9     3     6 1   
    10     3    44 1   
    11     4     5 1   
    12     5    45 1   
    13     5    46 1   
    14     5    47 1   
    15     6     7 1   
    16     6    48 1   
    17     6    49 1   
    18     7     8 1   
    19     7    50 1   
    20     7    51 1   
    21     8     9 1   
    22     8    52 1   
    23     9    10 1   
    24     9    24 1   
    25    10    11 ar  
    26    10    22 ar  
    27    11    12 ar  
    28    11    53 1   
    29    12    13 ar  
    30    12    54 1   
    31    13    14 1   
    32    13    21 ar  
    33    14    15 2   
    34    14    19 1   
    35    15    16 1   
    36    15    17 1   
    37    16    55 1   
    38    16    56 1   
    39    16    57 1   
    40    17    18 1   
    41    18    19 2   
    42    19    20 1   
    43    20    58 1   
    44    20    59 1   
    45    20    60 1   
    46    21    22 ar  
    47    21    61 1   
    48    22    23 1   
    49    23    24 2   
    50    24    25 1   
    51    25    26 1   
    52    25    31 1   
    53    25    62 1   
    54    26    27 1   
    55    26    63 1   
    56    26    64 1   
    57    27    28 1   
    58    27    65 1   
    59    27    66 1   
    60    28    29 1   
    61    28    67 1   
    62    28    68 1   
    63    29    30 2   
    64    29    31 1   
    65    31    32 1   
    66    32    33 ar  
    67    32    39 ar  
    68    33    34 ar  
    69    33    69 1   
    70    34    35 1   
    71    34    36 ar  
    72    36    37 1   
    73    36    38 ar  
    74    38    39 ar  
    75    38    70 1   
    76    39    71 1   
@<TRIPOS>SUBSTRUCTURE
     1 JHL         1 TEMP              0 ****  ****    0 ROOT
