@<TRIPOS>MOLECULE
JHL
   71    76     1     0     0
SMALL
abcg2


@<TRIPOS>ATOM
      1 CAS         10.2050    -4.7040   -10.9920 c6         1 JHL      -0.088400
      2 CAT         11.2500    -5.7140   -11.4530 c6         1 JHL      -0.091900
      3 CAU         12.4260    -5.0190   -12.1250 c6         1 JHL       0.169300
      4 OAX         13.3480    -6.0120   -12.5110 os         1 JHL      -0.452000
      5 CAY         14.6330    -5.5330   -12.8140 c3         1 JHL       0.146900
      6 CAV         11.9420    -4.1750   -13.3040 c6         1 JHL      -0.091900
      7 CAW         10.9010    -3.1520   -12.8590 c6         1 JHL      -0.088400
      8 CAQ          9.7360    -3.8610   -12.1740 c6         1 JHL       0.089300
      9 NAP          8.6690    -2.9400   -11.8010 na         1 JHL      -0.165600
     10 CAK          8.7590    -1.9050   -10.8960 ca         1 JHL      -0.072200
     11 CAL          9.7980    -1.3900   -10.1230 ca         1 JHL      -0.112000
     12 CAM          9.5080    -0.3100    -9.3120 ca         1 JHL      -0.082000
     13 CAH          8.2210     0.2620    -9.2440 ca         1 JHL      -0.020000
     14 CAA          7.9740     1.4160    -8.3760 cc         1 JHL      -0.175000
     15 CAE          7.2790     2.5510    -8.6600 cd         1 JHL       0.199300
     16 CAG          6.5840     3.0360    -9.8740 c3         1 JHL      -0.139400
     17 OAD          7.2680     3.3410    -7.5840 os         1 JHL      -0.072700
     18 NAC          7.9470     2.7460    -6.5620 nd         1 JHL      -0.367300
     19 CAB          8.3760     1.6060    -7.0180 cc         1 JHL       0.291300
     20 CAF          9.1540     0.6830    -6.1500 c3         1 JHL      -0.134400
     21 CAI          7.1950    -0.2650   -10.0160 ca         1 JHL      -0.042000
     22 CAJ          7.4740    -1.3450   -10.8500 ca         1 JHL       0.063400
     23 NAN          6.6410    -2.0150   -11.7020 nc         1 JHL      -0.565100
     24 CAO          7.3770    -2.9450   -12.2430 cd         1 JHL       0.389800
     25 CAR          6.8050    -3.9170   -13.2400 c6         1 JHL       0.129400
     26 CBD          6.2010    -3.1600   -14.4190 c6         1 JHL      -0.087400
     27 CBC          5.2770    -4.0650   -15.2080 c6         1 JHL      -0.074400
     28 CBB          4.1250    -4.4690   -14.3050 c6         1 JHL      -0.157400
     29 CBA          4.5690    -5.0680   -12.9950 c          1 JHL       0.581000
     30 OBM          3.8400    -5.7970   -12.3440 o          1 JHL      -0.539000
     31 NAZ          5.8250    -4.7680   -12.5570 n          1 JHL      -0.249400
     32 CBE          6.2990    -5.4650   -11.4120 ca         1 JHL      -0.042000
     33 CBF          6.0920    -4.9400   -10.1420 ca         1 JHL      -0.102000
     34 CBG          6.5560    -5.6350    -9.0460 ca         1 JHL       0.136000
     35 FBL          6.3700    -5.1540    -7.8130 f          1 JHL      -0.157000
     36 CBH          7.2130    -6.8450    -9.2010 ca         1 JHL       0.133000
     37 FBK          7.6270    -7.5000    -8.1140 f          1 JHL      -0.159000
     38 CBI          7.4310    -7.3640   -10.4600 ca         1 JHL      -0.131000
     39 CBJ          6.9730    -6.6680   -11.5700 ca         1 JHL      -0.104000
     40 H1          10.6340    -4.0680   -10.2130 hc         1 JHL       0.057450
     41 H2           9.3520    -5.2210   -10.5500 hc         1 JHL       0.057450
     42 H3          10.7950    -6.4190   -12.1560 hc         1 JHL       0.055700
     43 H4          11.6000    -6.2950   -10.5970 hc         1 JHL       0.055700
     44 H5          12.8940    -4.3430   -11.3890 h1         1 JHL       0.033700
     45 H6          15.2780    -6.3950   -12.9820 h1         1 JHL       0.030033
     46 H7          14.6600    -4.9120   -13.7170 h1         1 JHL       0.030033
     47 H8          15.0560    -4.9440   -11.9910 h1         1 JHL       0.030033
     48 H9          11.5060    -4.8370   -14.0590 hc         1 JHL       0.055700
     49 H10         12.7750    -3.6520   -13.7780 hc         1 JHL       0.055700
     50 H11         11.3650    -2.4320   -12.1810 hc         1 JHL       0.057450
     51 H12         10.5360    -2.5890   -13.7200 hc         1 JHL       0.057450
     52 H13          9.3050    -4.5470   -12.9040 h1         1 JHL       0.062700
     53 H14         10.8000    -1.7930   -10.1440 ha         1 JHL       0.119000
     54 H15         10.3070     0.1190    -8.7220 ha         1 JHL       0.116000
     55 H16          6.7630     4.0990   -10.0310 hc         1 JHL       0.064367
     56 H17          6.9360     2.4940   -10.7490 hc         1 JHL       0.064367
     57 H18          5.5060     2.8860    -9.8000 hc         1 JHL       0.064367
     58 H19          9.1040     0.9980    -5.1090 hc         1 JHL       0.057033
     59 H20          8.7690    -0.3340    -6.2240 hc         1 JHL       0.057033
     60 H21         10.2040     0.6560    -6.4430 hc         1 JHL       0.057033
     61 H22          6.1910     0.1390    -9.9670 ha         1 JHL       0.131000
     62 H23          7.5890    -4.5670   -13.6330 h1         1 JHL       0.049700
     63 H24          7.0250    -2.7880   -15.0300 hc         1 JHL       0.068200
     64 H25          5.6460    -2.2920   -14.0590 hc         1 JHL       0.068200
     65 H26          4.9000    -3.5490   -16.0910 hc         1 JHL       0.052200
     66 H27          5.8160    -4.9490   -15.5590 hc         1 JHL       0.052200
     67 H28          3.5100    -3.5930   -14.0730 hc         1 JHL       0.078200
     68 H29          3.4640    -5.1930   -14.7830 hc         1 JHL       0.078200
     69 H30          5.5710    -4.0020   -10.0080 ha         1 JHL       0.158000
     70 H31          7.9490    -8.3070   -10.5700 ha         1 JHL       0.137000
     71 H32          7.1330    -7.0720   -12.5610 ha         1 JHL       0.125000
@<TRIPOS>BOND
     1     1     2 1   
     2     1     8 1   
     3     1    40 1   
     4     1    41 1   
     5     2     3 1   
     6     2    42 1   
     7     2    43 1   
     8     3     4 1   
     9     3     6 1   
    10     3    44 1   
    11     4     5 1   
    12     5    45 1   
    13     5    46 1   
    14     5    47 1   
    15     6     7 1   
    16     6    48 1   
    17     6    49 1   
    18     7     8 1   
    19     7    50 1   
    20     7    51 1   
    21     8     9 1   
    22     8    52 1   
    23     9    10 1   
    24     9    24 1   
    25    10    11 ar  
    26    10    22 ar  
    27    11    12 ar  
    28    11    53 1   
    29    12    13 ar  
    30    12    54 1   
    31    13    14 1   
    32    13    21 ar  
    33    14    15 2   
    34    14    19 1   
    35    15    16 1   
    36    15    17 1   
    37    16    55 1   
    38    16    56 1   
    39    16    57 1   
    40    17    18 1   
    41    18    19 2   
    42    19    20 1   
    43    20    58 1   
    44    20    59 1   
    45    20    60 1   
    46    21    22 ar  
    47    21    61 1   
    48    22    23 1   
    49    23    24 2   
    50    24    25 1   
    51    25    26 1   
    52    25    31 1   
    53    25    62 1   
    54    26    27 1   
    55    26    63 1   
    56    26    64 1   
    57    27    28 1   
    58    27    65 1   
    59    27    66 1   
    60    28    29 1   
    61    28    67 1   
    62    28    68 1   
    63    29    30 2   
    64    29    31 1   
    65    31    32 1   
    66    32    33 ar  
    67    32    39 ar  
    68    33    34 ar  
    69    33    69 1   
    70    34    35 1   
    71    34    36 ar  
    72    36    37 1   
    73    36    38 ar  
    74    38    39 ar  
    75    38    70 1   
    76    39    71 1   
@<TRIPOS>SUBSTRUCTURE
     1 JHL         1 TEMP              0 ****  ****    0 ROOT
