@<TRIPOS>MOLECULE
JHM
   26    26     1     0     0
SMALL
bcc


@<TRIPOS>ATOM
      1 S           -3.1240     0.0650     0.0110 s6         1 JHM       1.502300
      2 C1           2.1570     1.7630     0.2630 c6         1 JHM       0.341900
      3 O1           2.3490     2.1890    -1.0510 oh         1 JHM      -0.631800
      4 C2           3.3100     0.8520     0.6480 c6         1 JHM      -0.129400
      5 C3           3.2310    -0.4790    -0.0880 c6         1 JHM       0.106100
      6 O3           4.1910    -1.4040     0.3810 oh         1 JHM      -0.612800
      7 C4           1.8610    -1.1050     0.1300 c6         1 JHM       0.116100
      8 O4           1.6870    -2.2690    -0.6400 oh         1 JHM      -0.585800
      9 C5           0.7720    -0.1080    -0.2740 c6         1 JHM       0.147100
     10 O5           0.9260     1.1060     0.4350 os         1 JHM      -0.403600
     11 C6          -0.6070    -0.6410     0.0540 c3         1 JHM       0.198400
     12 O6          -1.5620     0.2840    -0.4440 os         1 JHM      -0.571500
     13 O7          -3.4840    -1.2810    -0.4420 o          1 JHM      -0.711867
     14 O8          -3.1370     0.2160     1.4680 o          1 JHM      -0.711867
     15 O9          -3.7740     1.1510    -0.7180 o          1 JHM      -0.711867
     16 H1           2.1050     2.6160     0.9490 h2         1 JHM       0.056700
     17 H2A          3.2600     0.6710     1.7250 hc         1 JHM       0.054200
     18 H3           3.3580    -0.3120    -1.1670 h1         1 JHM       0.055700
     19 HO3          5.0560    -1.1390     0.0540 ho         1 JHM       0.399000
     20 H4           1.7500    -1.3200     1.2060 h1         1 JHM       0.048700
     21 HO4          2.3860    -2.8870    -0.4060 ho         1 JHM       0.407000
     22 H5           0.8430     0.0620    -1.3570 h1         1 JHM       0.065700
     23 H6          -0.7440    -1.6210    -0.4070 h1         1 JHM       0.047700
     24 H6A         -0.7010    -0.7580     1.1400 h1         1 JHM       0.047700
     25 HO1          1.6860     2.8560    -1.2620 ho         1 JHM       0.424000
     26 H2           4.2620     1.3500     0.4480 hc         1 JHM       0.054200
@<TRIPOS>BOND
     1     1    12 1   
     2     1    13 1   
     3     1    14 1   
     4     1    15 1   
     5     2     3 1   
     6     2     4 1   
     7     2    10 1   
     8     2    16 1   
     9     3    25 1   
    10     4     5 1   
    11     4    17 1   
    12     4    26 1   
    13     5     6 1   
    14     5     7 1   
    15     5    18 1   
    16     6    19 1   
    17     7     8 1   
    18     7     9 1   
    19     7    20 1   
    20     8    21 1   
    21     9    10 1   
    22     9    11 1   
    23     9    22 1   
    24    11    12 1   
    25    11    23 1   
    26    11    24 1   
@<TRIPOS>SUBSTRUCTURE
     1 JHM         1 TEMP              0 ****  ****    0 ROOT
