@<TRIPOS>MOLECULE
JHM
   26    26     1     0     0
SMALL
No Charge or Current Charge


@<TRIPOS>ATOM
      1 S           -3.2360     0.0170    -0.1060 s6         1 JHM       1.502300
      2 C1           2.2800     1.7950     0.2860 c6         1 JHM       0.388300
      3 O1           2.3130     2.1930    -1.0770 oh         1 JHM      -0.694000
      4 C2           3.4310     0.8110     0.6130 c6         1 JHM      -0.129400
      5 C3           3.2410    -0.5400    -0.1160 c6         1 JHM       0.129300
      6 O3           4.2560    -1.4750     0.2880 oh         1 JHM      -0.675000
      7 C4           1.8270    -1.1200     0.1820 c6         1 JHM       0.139300
      8 O4           1.6610    -2.3610    -0.5270 oh         1 JHM      -0.708000
      9 C5           0.7480    -0.0610    -0.2010 c6         1 JHM       0.170300
     10 O5           1.0060     1.1760     0.5290 os         1 JHM      -0.450000
     11 C6          -0.6950    -0.5370     0.1520 c3         1 JHM       0.221600
     12 O6          -1.6630     0.3810    -0.3940 os         1 JHM      -0.594700
     13 O7          -3.4230    -1.2930    -0.7480 o          1 JHM      -0.711867
     14 O8          -3.3380    -0.0120     1.3600 o          1 JHM      -0.711867
     15 O9          -3.9730     1.1160    -0.7450 o          1 JHM      -0.711867
     16 H1           2.3760     2.6840     0.9290 h2         1 JHM       0.056700
     17 H2A          3.4630     0.6510     1.6990 hc         1 JHM       0.054200
     18 H3           3.3160    -0.3580    -1.1990 h1         1 JHM       0.055700
     19 HO3          5.1240    -1.0550     0.0960 ho         1 JHM       0.438000
     20 H4           1.7530    -1.3020     1.2650 h1         1 JHM       0.048700
     21 HO4          2.5420    -2.8020    -0.4580 ho         1 JHM       0.506000
     22 H5           0.7900     0.1300    -1.2830 h1         1 JHM       0.065700
     23 H6          -0.8410    -1.5420    -0.2660 h1         1 JHM       0.047700
     24 H6A         -0.7800    -0.6090     1.2450 h1         1 JHM       0.047700
     25 HO1          1.4870     2.7060    -1.2030 ho         1 JHM       0.463000
     26 H2           4.3930     1.2630     0.3360 hc         1 JHM       0.054200
@<TRIPOS>BOND
     1     1    12 1   
     2     1    13 1   
     3     1    14 1   
     4     1    15 1   
     5     2     3 1   
     6     2     4 1   
     7     2    10 1   
     8     2    16 1   
     9     3    25 1   
    10     4     5 1   
    11     4    17 1   
    12     4    26 1   
    13     5     6 1   
    14     5     7 1   
    15     5    18 1   
    16     6    19 1   
    17     7     8 1   
    18     7     9 1   
    19     7    20 1   
    20     8    21 1   
    21     9    10 1   
    22     9    11 1   
    23     9    22 1   
    24    11    12 1   
    25    11    23 1   
    26    11    24 1   
@<TRIPOS>SUBSTRUCTURE
     1 JHM         1 TEMP              0 ****  ****    0 ROOT
