@<TRIPOS>MOLECULE
JHO
   45    48     1     0     0
SMALL
No Charge or Current Charge


@<TRIPOS>ATOM
      1 C2         -19.2610    -0.7820     0.5140 cc         1 JHO      -0.179000
      2 C5         -18.0850    -1.9900    -0.9260 cc         1 JHO       0.360800
      3 C7         -20.5560    -2.9340     1.4730 cd         1 JHO       0.592900
      4 C8         -20.8710    -1.6450     2.0350 cd         1 JHO      -0.189000
      5 C9         -20.2080    -0.5460     1.5430 cc         1 JHO       0.007000
      6 C11        -20.8290    -5.4320     1.8360 c3         1 JHO       0.241500
      7 C12        -21.5620    -6.0820     0.6220 c3         1 JHO       0.142600
      8 C14        -21.0950    -6.1810     3.1700 c3         1 JHO      -0.010200
      9 C15        -20.4320    -5.5460     4.3700 cc         1 JHO      -0.143400
     10 C16        -19.0210    -5.4380     4.6180 ca         1 JHO      -0.093800
     11 C17        -18.8550    -4.7630     5.7950 ca         1 JHO      -0.045200
     12 C19        -21.0570    -4.9220     5.4470 cd         1 JHO      -0.165100
     13 C20        -17.9270    -5.9030     3.8720 ca         1 JHO      -0.058000
     14 C21        -16.6310    -5.6430     4.3670 ca         1 JHO      -0.139000
     15 C22        -16.4580    -4.9400     5.5820 ca         1 JHO      -0.087000
     16 C23        -17.5800    -4.4930     6.3110 ca         1 JHO      -0.130000
     17 C24        -17.5220    -3.1550    -1.7020 c3         1 JHO      -0.074700
     18 C25        -16.4480    -3.9420    -0.9230 c3         1 JHO      -0.082100
     19 N1         -19.0470    -2.0450     0.0540 na         1 JHO       0.151000
     20 N3         -18.4730     0.0430    -0.1500 nd         1 JHO      -0.071000
     21 N4         -17.7320    -0.7130    -1.0530 nd         1 JHO      -0.380700
     22 N6         -19.6820    -3.1950     0.5000 nc         1 JHO      -0.574800
     23 N10        -21.2210    -4.0090     1.9790 nu         1 JHO      -0.934100
     24 N18        -20.0790    -4.4260     6.3430 na         1 JHO      -0.222700
     25 O13        -21.1140    -7.4300     0.3870 oh         1 JHO      -0.660000
     26 H1         -21.6050    -1.5400     2.8240 ha         1 JHO       0.128000
     27 H2         -20.3870     0.4580     1.9160 ha         1 JHO       0.148000
     28 H3         -19.7500    -5.5010     1.6370 h1         1 JHO       0.094700
     29 H4         -21.3760    -5.4710    -0.2710 h1         1 JHO       0.027700
     30 H5         -22.6440    -6.0700     0.8090 h1         1 JHO       0.027700
     31 H6         -22.1780    -6.2410     3.3370 hc         1 JHO       0.058200
     32 H7         -20.7440    -7.2150     3.0760 hc         1 JHO       0.058200
     33 H8         -22.1190    -4.7910     5.6360 h4         1 JHO       0.206000
     34 H9         -18.0680    -6.4490     2.9430 ha         1 JHO       0.119000
     35 H10        -15.7620    -5.9880     3.8120 ha         1 JHO       0.113000
     36 H11        -15.4560    -4.7450     5.9570 ha         1 JHO       0.111000
     37 H12        -17.4580    -3.9540     7.2480 ha         1 JHO       0.113000
     38 H13        -17.0870    -2.7920    -2.6410 hc         1 JHO       0.060700
     39 H14        -18.3350    -3.8360    -1.9810 hc         1 JHO       0.060700
     40 H15        -16.0660    -4.7720    -1.5290 hc         1 JHO       0.042033
     41 H16        -15.6060    -3.2910    -0.6610 hc         1 JHO       0.042033
     42 H17        -16.8660    -4.3570     0.0030 hc         1 JHO       0.042033
     43 H18        -21.7550    -3.7780     2.8120 hn         1 JHO       0.497000
     44 H19        -20.2410    -3.9260     7.2120 hn         1 JHO       0.350000
     45 H20        -21.6030    -7.7630    -0.3980 ho         1 JHO       0.448000
@<TRIPOS>BOND
     1     1     5 1   
     2     1    19 1   
     3     1    20 2   
     4     2    17 1   
     5     2    19 1   
     6     2    21 2   
     7     3     4 1   
     8     3    22 2   
     9     3    23 1   
    10     4     5 2   
    11     4    26 1   
    12     5    27 1   
    13     6     7 1   
    14     6     8 1   
    15     6    23 1   
    16     6    28 1   
    17     7    25 1   
    18     7    29 1   
    19     7    30 1   
    20     8     9 1   
    21     8    31 1   
    22     8    32 1   
    23     9    10 1   
    24     9    12 2   
    25    10    11 ar  
    26    10    13 ar  
    27    11    16 ar  
    28    11    24 1   
    29    12    24 1   
    30    12    33 1   
    31    13    14 ar  
    32    13    34 1   
    33    14    15 ar  
    34    14    35 1   
    35    15    16 ar  
    36    15    36 1   
    37    16    37 1   
    38    17    18 1   
    39    17    38 1   
    40    17    39 1   
    41    18    40 1   
    42    18    41 1   
    43    18    42 1   
    44    19    22 1   
    45    20    21 1   
    46    23    43 1   
    47    24    44 1   
    48    25    45 1   
@<TRIPOS>SUBSTRUCTURE
     1 JHO         1 TEMP              0 ****  ****    0 ROOT
