@<TRIPOS>MOLECULE
JHO
   45    48     1     0     0
SMALL
bcc


@<TRIPOS>ATOM
      1 C2         -19.2520    -0.8350     0.3250 cc         1 JHO      -0.128300
      2 C5         -17.9130    -2.1720    -0.7270 cc         1 JHO       0.360800
      3 C7         -20.5400    -2.9220     1.5060 cd         1 JHO       0.658200
      4 C8         -20.9620    -1.5640     1.7840 cd         1 JHO      -0.272300
      5 C9         -20.3260    -0.5290     1.2010 cc         1 JHO      -0.011000
      6 C11        -20.8560    -5.3230     1.9830 c3         1 JHO       0.241500
      7 C12        -21.5420    -5.9040     0.7490 c3         1 JHO       0.119400
      8 C14        -21.2420    -6.0690     3.2640 c3         1 JHO      -0.010200
      9 C15        -20.5480    -5.5440     4.4740 cc         1 JHO      -0.143400
     10 C16        -19.1450    -5.6180     4.7630 ca         1 JHO      -0.093800
     11 C17        -18.9380    -4.9530     5.9920 ca         1 JHO      -0.045200
     12 C19        -21.1100    -4.8600     5.5130 cd         1 JHO      -0.115100
     13 C20        -18.0480    -6.1900     4.1070 ca         1 JHO      -0.076000
     14 C21        -16.7950    -6.0840     4.6780 ca         1 JHO      -0.157000
     15 C22        -16.6110    -5.4120     5.8980 ca         1 JHO      -0.105000
     16 C23        -17.6740    -4.8410     6.5710 ca         1 JHO      -0.148000
     17 C24        -17.2660    -3.4190    -1.2070 c3         1 JHO      -0.074700
     18 C25        -16.0790    -3.1560    -2.1210 c3         1 JHO      -0.082100
     19 N1         -18.9510    -2.1510     0.1420 na         1 JHO       0.100300
     20 N3         -18.4400    -0.0940    -0.3940 nd         1 JHO      -0.071000
     21 N4         -17.6120    -0.9340    -1.0420 nd         1 JHO      -0.380700
     22 N6         -19.5570    -3.2140     0.6950 nc         1 JHO      -0.574800
     23 N10        -21.1910    -3.9250     2.1220 nu         1 JHO      -0.878900
     24 N18        -20.1520    -4.5050     6.4210 na         1 JHO      -0.172400
     25 O13        -21.1020    -7.2310     0.5750 oh         1 JHO      -0.597800
     26 H1         -21.7870    -1.4010     2.4650 ha         1 JHO       0.146000
     27 H2         -20.6050     0.4990     1.3820 ha         1 JHO       0.166000
     28 H3         -19.7740    -5.3940     1.8420 h1         1 JHO       0.094700
     29 H4         -21.2970    -5.2810    -0.1200 h1         1 JHO       0.027700
     30 H5         -22.6300    -5.8470     0.8930 h1         1 JHO       0.027700
     31 H6         -22.3270    -6.0040     3.4000 hc         1 JHO       0.058200
     32 H7         -21.0150    -7.1280     3.1220 hc         1 JHO       0.058200
     33 H8         -22.1450    -4.5960     5.6750 h4         1 JHO       0.156000
     34 H9         -18.1770    -6.7150     3.1670 ha         1 JHO       0.137000
     35 H10        -15.9400    -6.5230     4.1810 ha         1 JHO       0.131000
     36 H11        -15.6170    -5.3420     6.3210 ha         1 JHO       0.129000
     37 H12        -17.5310    -4.3260     7.5130 ha         1 JHO       0.131000
     38 H13        -18.0120    -4.0290    -1.7250 hc         1 JHO       0.060700
     39 H14        -16.9530    -4.0100    -0.3420 hc         1 JHO       0.060700
     40 H15        -15.6450    -4.1010    -2.4450 hc         1 JHO       0.042033
     41 H16        -16.3740    -2.6010    -3.0110 hc         1 JHO       0.042033
     42 H17        -15.3020    -2.5860    -1.6130 hc         1 JHO       0.042033
     43 H18        -21.9660    -3.6810     2.7180 hn         1 JHO       0.441800
     44 H19        -20.3230    -4.0040     7.2770 hn         1 JHO       0.299700
     45 H20        -21.5790    -7.6140    -0.1660 ho         1 JHO       0.409000
@<TRIPOS>BOND
     1     1     5 1   
     2     1    19 1   
     3     1    20 2   
     4     2    17 1   
     5     2    19 1   
     6     2    21 2   
     7     3     4 1   
     8     3    22 2   
     9     3    23 1   
    10     4     5 2   
    11     4    26 1   
    12     5    27 1   
    13     6     7 1   
    14     6     8 1   
    15     6    23 1   
    16     6    28 1   
    17     7    25 1   
    18     7    29 1   
    19     7    30 1   
    20     8     9 1   
    21     8    31 1   
    22     8    32 1   
    23     9    10 1   
    24     9    12 2   
    25    10    11 ar  
    26    10    13 ar  
    27    11    16 ar  
    28    11    24 1   
    29    12    24 1   
    30    12    33 1   
    31    13    14 ar  
    32    13    34 1   
    33    14    15 ar  
    34    14    35 1   
    35    15    16 ar  
    36    15    36 1   
    37    16    37 1   
    38    17    18 1   
    39    17    38 1   
    40    17    39 1   
    41    18    40 1   
    42    18    41 1   
    43    18    42 1   
    44    19    22 1   
    45    20    21 1   
    46    23    43 1   
    47    24    44 1   
    48    25    45 1   
@<TRIPOS>SUBSTRUCTURE
     1 JHO         1 TEMP              0 ****  ****    0 ROOT
