@<TRIPOS>MOLECULE
JHP
   29    30     1     0     0
SMALL
No Charge or Current Charge


@<TRIPOS>ATOM
      1 C10         -2.6400    -0.1090     0.3870 c5         1 JHP       0.106700
      2 C13         -4.6740    -0.2840    -0.8800 c5         1 JHP      -0.078400
      3 C01          3.2410     2.9170    -0.1930 c3         1 JHP       0.070900
      4 N02          2.6620     1.5710    -0.0880 na         1 JHP       0.155800
      5 C03          3.3620     0.3720    -0.0930 cc         1 JHP      -0.179000
      6 C04          2.3850    -0.5700     0.0270 cd         1 JHP       0.041000
      7 C05          1.1320     0.0950     0.1010 cd         1 JHP       0.208500
      8 N06          1.2960     1.4180     0.0300 nc         1 JHP      -0.522800
      9 C07         -0.2250    -0.5530     0.2390 c          1 JHP       0.535600
     10 O08         -0.4250    -1.7620     0.3090 o          1 JHP      -0.587100
     11 N09         -1.2590     0.3720     0.2840 ns         1 JHP      -0.488900
     12 C11         -3.4820     1.1310     0.7590 c5         1 JHP      -0.095900
     13 C12         -4.9030     0.6350     0.3690 c5         1 JHP      -0.078400
     14 C14         -3.1280    -0.3400    -1.0640 c5         1 JHP      -0.095900
     15 H101        -2.7950    -0.9670     1.0580 h1         1 JHP       0.078700
     16 H132        -5.0870    -1.2840    -0.7020 hc         1 JHP       0.043950
     17 H131        -5.1700     0.1080    -1.7760 hc         1 JHP       0.043950
     18 H013         2.9850     3.4960     0.7010 h1         1 JHP       0.061700
     19 H011         4.3320     2.8460    -0.2790 h1         1 JHP       0.061700
     20 H012         2.8390     3.4190    -1.0810 h1         1 JHP       0.061700
     21 H031         4.4390     0.2980    -0.1780 h4         1 JHP       0.168000
     22 H091        -0.9940     1.3490     0.2220 hn         1 JHP       0.327500
     23 H112        -3.4050     1.3910     1.8200 hc         1 JHP       0.049200
     24 H111        -3.2030     2.0200     0.1790 hc         1 JHP       0.049200
     25 H121        -5.5790     1.4700     0.1500 hc         1 JHP       0.043950
     26 H122        -5.3570     0.0660     1.1890 hc         1 JHP       0.043950
     27 H141        -2.7890     0.4490    -1.7470 hc         1 JHP       0.049200
     28 H142        -2.7890    -1.2970    -1.4760 hc         1 JHP       0.049200
     29 Cl15         2.6310    -2.2890     0.0810 cl         1 JHP      -0.124000
@<TRIPOS>BOND
     1     1    11 1   
     2     1    12 1   
     3     1    14 1   
     4     1    15 1   
     5     2    13 1   
     6     2    14 1   
     7     2    16 1   
     8     2    17 1   
     9     3     4 1   
    10     3    18 1   
    11     3    19 1   
    12     3    20 1   
    13     4     5 1   
    14     4     8 1   
    15     5     6 2   
    16     5    21 1   
    17     6     7 1   
    18     6    29 1   
    19     7     8 2   
    20     7     9 1   
    21     9    10 2   
    22     9    11 1   
    23    11    22 1   
    24    12    13 1   
    25    12    23 1   
    26    12    24 1   
    27    13    25 1   
    28    13    26 1   
    29    14    27 1   
    30    14    28 1   
@<TRIPOS>SUBSTRUCTURE
     1 JHP         1 TEMP              0 ****  ****    0 ROOT
