@<TRIPOS>MOLECULE
JHP
   29    30     1     0     0
SMALL
bcc


@<TRIPOS>ATOM
      1 C10         -2.5820    -0.0290     0.2350 c5         1 JHP       0.106700
      2 C13         -4.7240    -0.3280    -0.7800 c5         1 JHP      -0.078400
      3 C01          3.1850     2.8960    -0.1390 c3         1 JHP       0.041600
      4 N02          2.6510     1.5540    -0.0570 na         1 JHP       0.134400
      5 C03          3.3460     0.4040    -0.0500 cc         1 JHP      -0.146300
      6 C04          2.4130    -0.6020     0.0390 cd         1 JHP      -0.115900
      7 C05          1.1700     0.0510     0.0810 cd         1 JHP       0.273800
      8 N06          1.3510     1.3620     0.0200 nc         1 JHP      -0.522800
      9 C07         -0.1840    -0.5430     0.1840 c          1 JHP       0.602600
     10 O08         -0.3340    -1.7530     0.2780 o          1 JHP      -0.587100
     11 N09         -1.1890     0.3440     0.1760 ns         1 JHP      -0.555900
     12 C11         -3.4590     1.0940     0.7880 c5         1 JHP      -0.095900
     13 C12         -4.8850     0.7290     0.3400 c5         1 JHP      -0.078400
     14 C14         -3.2320    -0.3420    -1.1130 c5         1 JHP      -0.095900
     15 H101        -2.6700    -0.9060     0.8810 h1         1 JHP       0.078700
     16 H132        -5.0280    -1.3110    -0.4150 hc         1 JHP       0.043950
     17 H131        -5.3410    -0.1100    -1.6510 hc         1 JHP       0.043950
     18 H013         2.8670     3.4740     0.7260 h1         1 JHP       0.061700
     19 H011         4.2690     2.8410    -0.1530 h1         1 JHP       0.061700
     20 H012         2.8390     3.3810    -1.0480 h1         1 JHP       0.061700
     21 H031         4.4210     0.3710    -0.1070 h4         1 JHP       0.186000
     22 H091        -0.9640     1.3160     0.0290 hn         1 JHP       0.327500
     23 H112        -3.3630     1.2030     1.8690 hc         1 JHP       0.049200
     24 H111        -3.1520     2.0430     0.3390 hc         1 JHP       0.049200
     25 H121        -5.4180     1.6110    -0.0140 hc         1 JHP       0.043950
     26 H122        -5.4660     0.3260     1.1690 hc         1 JHP       0.043950
     27 H141        -2.9850     0.4520    -1.8240 hc         1 JHP       0.049200
     28 H142        -2.8920    -1.2870    -1.5380 hc         1 JHP       0.049200
     29 CL15         2.7580    -2.2730     0.0810 cl         1 JHP      -0.032400
@<TRIPOS>BOND
     1     1    11 1   
     2     1    12 1   
     3     1    14 1   
     4     1    15 1   
     5     2    13 1   
     6     2    14 1   
     7     2    16 1   
     8     2    17 1   
     9     3     4 1   
    10     3    18 1   
    11     3    19 1   
    12     3    20 1   
    13     4     5 1   
    14     4     8 1   
    15     5     6 2   
    16     5    21 1   
    17     6     7 1   
    18     6    29 1   
    19     7     8 2   
    20     7     9 1   
    21     9    10 2   
    22     9    11 1   
    23    11    22 1   
    24    12    13 1   
    25    12    23 1   
    26    12    24 1   
    27    13    25 1   
    28    13    26 1   
    29    14    27 1   
    30    14    28 1   
@<TRIPOS>SUBSTRUCTURE
     1 JHP         1 TEMP              0 ****  ****    0 ROOT
