@<TRIPOS>MOLECULE
JHR
   56    58     1     0     0
SMALL
No Charge or Current Charge


@<TRIPOS>ATOM
      1 C10         21.1160     0.6240    21.2590 ca         1 JHR      -0.062500
      2 C13         19.6290     6.4570    24.2550 c          1 JHR       0.589100
      3 C15         18.6200     8.3690    25.5260 c3         1 JHR       0.147300
      4 C17         16.2810     8.7560    26.4400 ca         1 JHR      -0.070000
      5 C21         17.2400     8.7390    29.0830 ca         1 JHR      -0.156500
      6 C22         18.1320     8.5590    28.0110 ca         1 JHR      -0.070000
      7 C24         20.2550     4.2400    25.3810 c3         1 JHR       0.003900
      8 C26         19.2530     1.9020    25.3100 ca         1 JHR      -0.070000
      9 C28         20.6490    -0.0830    25.0410 ca         1 JHR       0.332100
     10 C02         19.9460     3.5060    22.0250 c          1 JHR       0.611100
     11 C03         20.9520     3.1420    20.9240 c3         1 JHR      -0.097100
     12 C04         21.7380     1.8890    21.3050 ca         1 JHR      -0.103300
     13 C05         23.0840     1.9860    21.7130 ca         1 JHR      -0.062500
     14 C06         23.8010     0.8300    22.0660 ca         1 JHR      -0.143000
     15 C07         23.1740    -0.4240    22.0160 ca         1 JHR       0.196000
     16 C09         21.8340    -0.5310    21.6150 ca         1 JHR      -0.143000
     17 C12         19.6440     4.9070    24.1190 c3         1 JHR       0.028700
     18 C16         17.6560     8.5690    26.6850 ca         1 JHR      -0.117300
     19 C18         15.3900     8.9350    27.5130 ca         1 JHR      -0.156500
     20 C19         15.8730     8.9270    28.8310 ca         1 JHR       0.165000
     21 C25         20.3950     2.7230    25.2670 ca         1 JHR      -0.250300
     22 C27         19.3770     0.5070    25.1960 ca         1 JHR      -0.218500
     23 C34         21.7860     0.7410    25.0050 ca         1 JHR      -0.218500
     24 C35         21.6640     2.1350    25.1130 ca         1 JHR      -0.070000
     25 F08         23.8640    -1.5340    22.3590 f          1 JHR      -0.175000
     26 F20         15.0160     9.0990    29.8610 f          1 JHR      -0.188000
     27 N11         20.3660     4.4910    22.8930 ns         1 JHR      -0.484900
     28 O01         18.8550     2.9610    22.1260 o          1 JHR      -0.577100
     29 O31         19.0330    -2.5730    26.3100 o          1 JHR      -0.892500
     30 O32         20.4330    -3.9290    24.8680 o          1 JHR      -0.892500
     31 O33         18.7600    -2.4690    23.8930 o          1 JHR      -0.892500
     32 P30         19.7460    -2.6140    25.0010 p5         1 JHR       1.245900
     33 H1          20.0760     0.5370    20.9520 ha         1 JHR       0.106500
     34 H2          19.5980     8.7990    25.7780 h1         1 JHR       0.055200
     35 H3          18.2420     8.8840    24.6320 h1         1 JHR       0.055200
     36 H4          15.9020     8.7610    25.4190 ha         1 JHR       0.123500
     37 H5          17.6060     8.7320    30.1070 ha         1 JHR       0.127500
     38 H6          19.1920     8.4110    28.2110 ha         1 JHR       0.123500
     39 H7          21.2370     4.6920    25.5740 hc         1 JHR       0.024200
     40 H8          19.6370     4.4840    26.2530 hc         1 JHR       0.024200
     41 H9          18.2670     2.3450    25.4270 ha         1 JHR       0.057500
     42 H10         21.6540     3.9720    20.7800 hc         1 JHR       0.044700
     43 H11         20.4080     2.9570    19.9910 hc         1 JHR       0.044700
     44 H12         23.5760     2.9550    21.7590 ha         1 JHR       0.106500
     45 H13         24.8380     0.9040    22.3810 ha         1 JHR       0.129000
     46 H14         21.3530    -1.5040    21.5850 ha         1 JHR       0.129000
     47 H15         18.5950     4.5940    24.0380 h1         1 JHR       0.097700
     48 H16         14.3290     9.0800    27.3250 ha         1 JHR       0.127500
     49 H17         18.4800    -0.1010    25.2280 ha         1 JHR       0.129000
     50 H18         22.7670     0.2920    24.8900 ha         1 JHR       0.129000
     51 H19         22.5560     2.7550    25.0740 ha         1 JHR       0.057500
     52 H20         21.2730     4.9030    22.7100 hn         1 JHR       0.314500
     53 H21         18.2530     6.2800    25.7660 hn         1 JHR       0.327500
     54 N14         18.7860     6.9510    25.2250 ns         1 JHR      -0.511900
     55 O23         20.3060     7.2030    23.5570 o          1 JHR      -0.633100
     56 O29         20.8460    -1.4370    24.9310 os         1 JHR      -0.399500
@<TRIPOS>BOND
     1     1    12 ar  
     2     1    16 ar  
     3     1    33 1   
     4     2    17 1   
     5     2    54 1   
     6     2    55 2   
     7     3    18 1   
     8     3    34 1   
     9     3    35 1   
    10     3    54 1   
    11     4    18 ar  
    12     4    19 ar  
    13     4    36 1   
    14     5     6 ar  
    15     5    20 ar  
    16     5    37 1   
    17     6    18 ar  
    18     6    38 1   
    19     7    17 1   
    20     7    21 1   
    21     7    39 1   
    22     7    40 1   
    23     8    21 ar  
    24     8    22 ar  
    25     8    41 1   
    26     9    22 ar  
    27     9    23 ar  
    28     9    56 1   
    29    10    11 1   
    30    10    27 1   
    31    10    28 2   
    32    11    12 1   
    33    11    42 1   
    34    11    43 1   
    35    12    13 ar  
    36    13    14 ar  
    37    13    44 1   
    38    14    15 ar  
    39    14    45 1   
    40    15    16 ar  
    41    15    25 1   
    42    16    46 1   
    43    17    27 1   
    44    17    47 1   
    45    19    20 ar  
    46    19    48 1   
    47    20    26 1   
    48    21    24 ar  
    49    22    49 1   
    50    23    24 ar  
    51    23    50 1   
    52    24    51 1   
    53    27    52 1   
    54    29    32 1   
    55    30    32 1   
    56    31    32 1   
    57    32    56 1   
    58    53    54 1   
@<TRIPOS>SUBSTRUCTURE
     1 JHR         1 TEMP              0 ****  ****    0 ROOT
