@<TRIPOS>MOLECULE
JHR
   56    58     1     0     0
SMALL
bcc


@<TRIPOS>ATOM
      1 C10         20.0030     1.3850    20.4190 ca         1 JHR      -0.080500
      2 C13         20.0980     6.3800    25.0830 c          1 JHR       0.656100
      3 C15         19.0130     8.1050    26.4750 c3         1 JHR       0.147300
      4 C17         16.6320     8.2480    25.6690 ca         1 JHR      -0.088000
      5 C21         15.7520     9.0880    28.1670 ca         1 JHR      -0.174500
      6 C22         17.0970     8.8150    27.9480 ca         1 JHR      -0.088000
      7 C24         21.0900     4.2470    25.9620 c3         1 JHR       0.003900
      8 C26         20.2930     1.8690    26.2250 ca         1 JHR      -0.088000
      9 C28         21.4820    -0.0230    25.2880 ca         1 JHR       0.332100
     10 C02         20.1530     3.7150    22.7020 c          1 JHR       0.678100
     11 C03         20.9030     3.5310    21.3890 c3         1 JHR      -0.097100
     12 C04         21.0380     2.0750    21.0450 ca         1 JHR      -0.103300
     13 C05         22.1910     1.3750    21.3850 ca         1 JHR      -0.080500
     14 C06         22.3160     0.0180    21.1210 ca         1 JHR      -0.161000
     15 C07         21.2650    -0.6320    20.5060 ca         1 JHR       0.160900
     16 C09         20.1070     0.0290    20.1430 ca         1 JHR      -0.161000
     17 C12         20.1940     4.8700    24.8680 c3         1 JHR       0.028700
     18 C16         17.5530     8.3960    26.7040 ca         1 JHR      -0.117300
     19 C18         15.2860     8.5120    25.8660 ca         1 JHR      -0.174500
     20 C19         14.8700     8.9280    27.1180 ca         1 JHR       0.129900
     21 C25         21.2560     2.7680    25.7740 ca         1 JHR      -0.250300
     22 C27         20.3900     0.5050    25.9960 ca         1 JHR      -0.236500
     23 C34         22.4610     0.8800    24.8520 ca         1 JHR      -0.236500
     24 C35         22.3420     2.2410    25.0820 ca         1 JHR      -0.088000
     25 F08         21.3750    -1.9460    20.2460 f          1 JHR      -0.139900
     26 F20         13.5670     9.1800    27.3180 f          1 JHR      -0.152900
     27 N11         20.7030     4.6000    23.5520 ns         1 JHR      -0.551900
     28 O01         19.1180     3.1100    22.9280 o          1 JHR      -0.577100
     29 O31         21.1890    -2.4300    27.2740 o          1 JHR      -0.892500
     30 O32         21.5320    -3.8030    25.1190 o          1 JHR      -0.892500
     31 O33         19.3640    -2.4620    25.4680 o          1 JHR      -0.892500
     32 P30         20.8330    -2.6510    25.8150 p5         1 JHR       1.245900
     33 H1          19.1010     1.9110    20.1330 ha         1 JHR       0.124500
     34 H2          19.5750     8.2910    27.3950 h1         1 JHR       0.055200
     35 H3          19.4170     8.7750    25.7160 h1         1 JHR       0.055200
     36 H4          16.9660     7.9200    24.6920 ha         1 JHR       0.141500
     37 H5          15.4010     9.4110    29.1380 ha         1 JHR       0.145500
     38 H6          17.7970     8.9300    28.7670 ha         1 JHR       0.141500
     39 H7          22.0640     4.7440    25.9420 hc         1 JHR       0.024200
     40 H8          20.6470     4.4620    26.9370 hc         1 JHR       0.024200
     41 H9          19.4310     2.2430    26.7690 ha         1 JHR       0.075500
     42 H10         21.8840     4.0060    21.4240 hc         1 JHR       0.044700
     43 H11         20.3270     4.0500    20.6180 hc         1 JHR       0.044700
     44 H12         23.0080     1.8920    21.8720 ha         1 JHR       0.124500
     45 H13         23.2150    -0.5200    21.3920 ha         1 JHR       0.147000
     46 H14         19.3010    -0.5020    19.6550 ha         1 JHR       0.147000
     47 H15         19.1990     4.4280    24.9390 h1         1 JHR       0.097700
     48 H16         14.5720     8.3970    25.0610 ha         1 JHR       0.145500
     49 H17         19.6010    -0.1500    26.3350 ha         1 JHR       0.147000
     50 H18         23.3200     0.5010    24.3110 ha         1 JHR       0.147000
     51 H19         23.1170     2.9050    24.7150 ha         1 JHR       0.075500
     52 H20         21.5730     5.0420    23.3000 hn         1 JHR       0.314500
     53 H21         18.6940     6.0240    26.5030 hn         1 JHR       0.327500
     54 N14         19.2110     6.7450    26.0230 ns         1 JHR      -0.578900
     55 O23         20.8030     7.1620    24.4660 o          1 JHR      -0.633100
     56 O29         21.6470    -1.3060    24.9930 os         1 JHR      -0.399500
@<TRIPOS>BOND
     1     1    12 ar  
     2     1    16 ar  
     3     1    33 1   
     4     2    17 1   
     5     2    54 1   
     6     2    55 2   
     7     3    18 1   
     8     3    34 1   
     9     3    35 1   
    10     3    54 1   
    11     4    18 ar  
    12     4    19 ar  
    13     4    36 1   
    14     5     6 ar  
    15     5    20 ar  
    16     5    37 1   
    17     6    18 ar  
    18     6    38 1   
    19     7    17 1   
    20     7    21 1   
    21     7    39 1   
    22     7    40 1   
    23     8    21 ar  
    24     8    22 ar  
    25     8    41 1   
    26     9    22 ar  
    27     9    23 ar  
    28     9    56 1   
    29    10    11 1   
    30    10    27 1   
    31    10    28 2   
    32    11    12 1   
    33    11    42 1   
    34    11    43 1   
    35    12    13 ar  
    36    13    14 ar  
    37    13    44 1   
    38    14    15 ar  
    39    14    45 1   
    40    15    16 ar  
    41    15    25 1   
    42    16    46 1   
    43    17    27 1   
    44    17    47 1   
    45    19    20 ar  
    46    19    48 1   
    47    20    26 1   
    48    21    24 ar  
    49    22    49 1   
    50    23    24 ar  
    51    23    50 1   
    52    24    51 1   
    53    27    52 1   
    54    29    32 1   
    55    30    32 1   
    56    31    32 1   
    57    32    56 1   
    58    53    54 1   
@<TRIPOS>SUBSTRUCTURE
     1 JHR         1 TEMP              0 ****  ****    0 ROOT
