@<TRIPOS>MOLECULE
JHS
   36    37     1     0     0
SMALL
bcc


@<TRIPOS>ATOM
      1 C10         -2.4470    -1.3050     1.0000 c6         1 JHS       0.127900
      2 C13          1.8330    -0.3250     1.1490 ca         1 JHS      -0.130500
      3 C15          4.0070    -0.2490     0.1140 ca         1 JHS      -0.129000
      4 C17          2.0360    -0.6550    -1.2070 ca         1 JHS      -0.130500
      5 C01         -0.7270     3.7300     1.2080 c3         1 JHS      -0.181100
      6 C02         -1.3310     2.5250     0.5290 c          1 JHS       0.668100
      7 O03         -2.5260     2.2730     0.6190 o          1 JHS      -0.613100
      8 N04         -0.4660     1.7740    -0.1730 ns         1 JHS      -0.570900
      9 C05         -0.8110     0.5740    -0.8940 c3         1 JHS       0.105000
     10 C06         -0.2930    -0.7160    -0.2160 c6         1 JHS      -0.013700
     11 C07         -0.6390    -1.9280    -1.1030 c6         1 JHS      -0.102900
     12 C08         -2.1240    -2.2580    -1.1040 c6         1 JHS       0.127900
     13 O09         -2.6290    -2.4510     0.1980 os         1 JHS      -0.401600
     14 C11         -0.9800    -0.9310     1.1390 c6         1 JHS      -0.102900
     15 C12          1.2190    -0.5820    -0.0760 ca         1 JHS      -0.073300
     16 C14          3.2110    -0.1630     1.2450 ca         1 JHS      -0.128500
     17 C16          3.4110    -0.4940    -1.1170 ca         1 JHS      -0.128500
     18 H102        -3.0230    -0.4580     0.6030 h1         1 JHS       0.049700
     19 H101        -2.8600    -1.5370     1.9830 h1         1 JHS       0.049700
     20 H131         1.2420    -0.2480     2.0510 ha         1 JHS       0.130500
     21 H151         5.0800    -0.1270     0.1870 ha         1 JHS       0.132000
     22 H171         1.6030    -0.8400    -2.1830 ha         1 JHS       0.130500
     23 H012        -1.2010     4.6350     0.8270 hc         1 JHS       0.060033
     24 H013        -0.9320     3.6830     2.2770 hc         1 JHS       0.060033
     25 H011         0.3480     3.8210     1.0670 hc         1 JHS       0.060033
     26 H041         0.5000     2.0570    -0.1920 hn         1 JHS       0.314500
     27 H051        -1.8930     0.5510    -1.0070 h1         1 JHS       0.059200
     28 H052        -0.3930     0.6400    -1.9020 h1         1 JHS       0.059200
     29 H072        -0.3270    -1.7630    -2.1370 hc         1 JHS       0.052700
     30 H071        -0.0800    -2.7970    -0.7420 hc         1 JHS       0.052700
     31 H081        -2.6930    -1.4730    -1.6230 h1         1 JHS       0.049700
     32 H082        -2.2930    -3.1850    -1.6550 h1         1 JHS       0.049700
     33 H111        -0.9090    -0.0400     1.7670 hc         1 JHS       0.052700
     34 H112        -0.4660    -1.7340     1.6770 hc         1 JHS       0.052700
     35 H141         3.6580     0.0340     2.2110 ha         1 JHS       0.131000
     36 H161         4.0180    -0.5600    -2.0100 ha         1 JHS       0.131000
@<TRIPOS>BOND
     1     1    13 1   
     2     1    14 1   
     3     1    18 1   
     4     1    19 1   
     5     2    15 ar  
     6     2    16 ar  
     7     2    20 1   
     8     3    16 ar  
     9     3    17 ar  
    10     3    21 1   
    11     4    15 ar  
    12     4    17 ar  
    13     4    22 1   
    14     5     6 1   
    15     5    23 1   
    16     5    24 1   
    17     5    25 1   
    18     6     7 2   
    19     6     8 1   
    20     8     9 1   
    21     8    26 1   
    22     9    10 1   
    23     9    27 1   
    24     9    28 1   
    25    10    11 1   
    26    10    14 1   
    27    10    15 1   
    28    11    12 1   
    29    11    29 1   
    30    11    30 1   
    31    12    13 1   
    32    12    31 1   
    33    12    32 1   
    34    14    33 1   
    35    14    34 1   
    36    16    35 1   
    37    17    36 1   
@<TRIPOS>SUBSTRUCTURE
     1 JHS         1 TEMP              0 ****  ****    0 ROOT
