@<TRIPOS>MOLECULE
JHS
   36    37     1     0     0
SMALL
No Charge or Current Charge


@<TRIPOS>ATOM
      1 C10         -2.5220    -1.3360     1.0360 c6         1 JHS       0.151100
      2 C13          1.8740    -0.4050     1.1770 ca         1 JHS      -0.112500
      3 C15          4.0370    -0.1780     0.0820 ca         1 JHS      -0.111000
      4 C17          2.0210    -0.4820    -1.2450 ca         1 JHS      -0.112500
      5 C01         -0.6680     3.7580     1.2240 c3         1 JHS      -0.181100
      6 C02         -1.3320     2.5450     0.5860 c          1 JHS       0.601100
      7 O03         -2.5020     2.2560     0.7860 o          1 JHS      -0.613100
      8 N04         -0.5100     1.8070    -0.2320 ns         1 JHS      -0.503900
      9 C05         -0.8880     0.5590    -0.9090 c3         1 JHS       0.105000
     10 C06         -0.3210    -0.7270    -0.2070 c6         1 JHS      -0.013700
     11 C07         -0.6310    -1.9890    -1.0850 c6         1 JHS      -0.102900
     12 C08         -2.1420    -2.3360    -1.1270 c6         1 JHS       0.151100
     13 O09         -2.6470    -2.5120     0.2110 os         1 JHS      -0.448000
     14 C11         -1.0270    -0.9550     1.1780 c6         1 JHS      -0.102900
     15 C12          1.2240    -0.5460    -0.0760 ca         1 JHS      -0.073300
     16 C14          3.2660    -0.2270     1.2520 ca         1 JHS      -0.110500
     17 C16          3.4120    -0.3030    -1.1670 ca         1 JHS      -0.110500
     18 H102        -3.1020    -0.5130     0.5950 h1         1 JHS       0.049700
     19 H101        -2.9460    -1.5520     2.0270 h1         1 JHS       0.049700
     20 H131         1.3200    -0.4250     2.1100 ha         1 JHS       0.112500
     21 H151         5.1150    -0.0390     0.1430 ha         1 JHS       0.114000
     22 H171         1.5660    -0.5620    -2.2280 ha         1 JHS       0.112500
     23 H012        -0.2390     4.3860     0.4360 hc         1 JHS       0.060033
     24 H013        -1.3510     4.3240     1.8680 hc         1 JHS       0.060033
     25 H011         0.2240     3.4290     1.7700 hc         1 JHS       0.060033
     26 H041         0.4480     2.1240    -0.3170 hn         1 JHS       0.314500
     27 H051        -1.9800     0.5030    -0.9920 h1         1 JHS       0.059200
     28 H052        -0.4960     0.6060    -1.9330 h1         1 JHS       0.059200
     29 H072        -0.2780    -1.8510    -2.1150 hc         1 JHS       0.052700
     30 H071        -0.0810    -2.8540    -0.6900 hc         1 JHS       0.052700
     31 H081        -2.7130    -1.5440    -1.6330 h1         1 JHS       0.049700
     32 H082        -2.2930    -3.2700    -1.6890 h1         1 JHS       0.049700
     33 H111        -0.9440    -0.0630     1.8120 hc         1 JHS       0.052700
     34 H112        -0.5250    -1.7680     1.7190 hc         1 JHS       0.052700
     35 H141         3.7480    -0.1230     2.2220 ha         1 JHS       0.113000
     36 H161         4.0060    -0.2580    -2.0770 ha         1 JHS       0.113000
@<TRIPOS>BOND
     1     1    13 1   
     2     1    14 1   
     3     1    18 1   
     4     1    19 1   
     5     2    15 ar  
     6     2    16 ar  
     7     2    20 1   
     8     3    16 ar  
     9     3    17 ar  
    10     3    21 1   
    11     4    15 ar  
    12     4    17 ar  
    13     4    22 1   
    14     5     6 1   
    15     5    23 1   
    16     5    24 1   
    17     5    25 1   
    18     6     7 2   
    19     6     8 1   
    20     8     9 1   
    21     8    26 1   
    22     9    10 1   
    23     9    27 1   
    24     9    28 1   
    25    10    11 1   
    26    10    14 1   
    27    10    15 1   
    28    11    12 1   
    29    11    29 1   
    30    11    30 1   
    31    12    13 1   
    32    12    31 1   
    33    12    32 1   
    34    14    33 1   
    35    14    34 1   
    36    16    35 1   
    37    17    36 1   
@<TRIPOS>SUBSTRUCTURE
     1 JHS         1 TEMP              0 ****  ****    0 ROOT
