@<TRIPOS>MOLECULE
JHT
   45    47     1     0     0
SMALL
No Charge or Current Charge


@<TRIPOS>ATOM
      1 C01          7.0260     0.8070     1.4530 c3         1 JHT       0.217600
      2 N02          5.6280     1.0140     1.0080 nh         1 JHT      -0.828400
      3 C03          5.0910     2.3930     1.0940 c3         1 JHT       0.217600
      4 C04          4.8360    -0.0610     0.5250 ca         1 JHT       0.330000
      5 C05          5.0730    -1.3810     0.9620 ca         1 JHT      -0.188000
      6 C06          4.2890    -2.4460     0.4870 ca         1 JHT      -0.071000
      7 C07          3.2590    -2.2030    -0.4330 ca         1 JHT      -0.162000
      8 C08          3.0060    -0.8950    -0.8840 ca         1 JHT      -0.048300
      9 C09          1.8910    -0.6260    -1.8890 c3         1 JHT       0.206100
     10 N10          0.6610    -0.1980    -1.1990 n7         1 JHT      -0.868400
     11 C11         -0.4970     0.0460    -2.0760 c3         1 JHT       0.206100
     12 C12         -1.7150     0.4490    -1.2550 ca         1 JHT      -0.066300
     13 C13         -1.8840     1.7850    -0.8490 ca         1 JHT      -0.105000
     14 C14         -3.0070     2.1580    -0.0940 ca         1 JHT      -0.082000
     15 C15         -3.9700     1.1950     0.2590 ca         1 JHT      -0.126000
     16 C16         -5.0970     1.5670     1.0150 ca         1 JHT      -0.029000
     17 C17         -6.0260     0.5690     1.3410 ca         1 JHT      -0.210000
     18 C18         -5.7770    -0.7320     0.9000 ca         1 JHT       0.612900
     19 N19         -6.5880    -1.7640     1.1380 nv         1 JHT      -1.066900
     20 N20         -4.7260    -1.1090     0.1850 nb         1 JHT      -0.760000
     21 C21         -3.8160    -0.1600    -0.1410 ca         1 JHT       0.324000
     22 C22         -2.6820    -0.5120    -0.8970 ca         1 JHT      -0.102000
     23 C23          3.7970     0.1670    -0.4000 ca         1 JHT      -0.167000
     24 H011         7.6050     1.7370     1.3680 h1         1 JHT       0.033700
     25 H012         7.0520     0.4750     2.4990 h1         1 JHT       0.033700
     26 H013         7.5220     0.0510     0.8290 h1         1 JHT       0.033700
     27 H031         5.1970     2.9080     0.1300 h1         1 JHT       0.033700
     28 H032         4.0290     2.3760     1.3720 h1         1 JHT       0.033700
     29 H033         5.6250     2.9720     1.8600 h1         1 JHT       0.033700
     30 H05          5.8580    -1.5890     1.6820 ha         1 JHT       0.109000
     31 H23          3.5990     1.1720    -0.7590 ha         1 JHT       0.125000
     32 H06          4.4800    -3.4590     0.8360 ha         1 JHT       0.106000
     33 H07          2.6550    -3.0320    -0.7960 ha         1 JHT       0.109000
     34 H091         2.2230     0.1480    -2.5950 h1         1 JHT       0.034700
     35 H092         1.7050    -1.5400    -2.4710 h1         1 JHT       0.034700
     36 H10          0.4030    -0.9360    -0.5340 hn         1 JHT       0.420000
     37 H111        -0.2700     0.8440    -2.7960 h1         1 JHT       0.036700
     38 H112        -0.7360    -0.8570    -2.6560 h1         1 JHT       0.036700
     39 H13         -1.1410     2.5330    -1.1160 ha         1 JHT       0.126000
     40 H22         -2.5550    -1.5450    -1.2070 ha         1 JHT       0.126000
     41 H14         -3.1270     3.1950     0.2140 ha         1 JHT       0.110000
     42 H16         -5.2480     2.5950     1.3380 ha         1 JHT       0.116000
     43 H17         -6.9130     0.8000     1.9220 ha         1 JHT       0.119000
     44 H191        -7.5580    -1.5530     1.3440 hn         1 JHT       0.476000
     45 H192        -6.4140    -2.5820     0.5680 hn         1 JHT       0.476000
@<TRIPOS>BOND
     1     1     2 1   
     2     1    24 1   
     3     1    25 1   
     4     1    26 1   
     5     2     3 1   
     6     2     4 1   
     7     3    27 1   
     8     3    28 1   
     9     3    29 1   
    10     4     5 ar  
    11     4    23 ar  
    12     5     6 ar  
    13     5    30 1   
    14     6     7 ar  
    15     6    32 1   
    16     7     8 ar  
    17     7    33 1   
    18     8     9 1   
    19     8    23 ar  
    20     9    10 1   
    21     9    34 1   
    22     9    35 1   
    23    10    11 1   
    24    10    36 1   
    25    11    12 1   
    26    11    37 1   
    27    11    38 1   
    28    12    13 ar  
    29    12    22 ar  
    30    13    14 ar  
    31    13    39 1   
    32    14    15 ar  
    33    14    41 1   
    34    15    16 ar  
    35    15    21 ar  
    36    16    17 ar  
    37    16    42 1   
    38    17    18 ar  
    39    17    43 1   
    40    18    19 1   
    41    18    20 ar  
    42    19    44 1   
    43    19    45 1   
    44    20    21 ar  
    45    21    22 ar  
    46    22    40 1   
    47    23    31 1   
@<TRIPOS>SUBSTRUCTURE
     1 JHT         1 TEMP              0 ****  ****    0 ROOT
