@<TRIPOS>MOLECULE
JHT
   45    47     1     0     0
SMALL
bcc


@<TRIPOS>ATOM
      1 C01          6.3110     1.2380     1.7990 c3         1 JHT       0.217600
      2 N02          5.0150     1.1340     1.1720 nh         1 JHT      -0.690000
      3 C03          4.2290     2.3340     1.0060 c3         1 JHT       0.217600
      4 C04          4.7030     0.0160     0.4420 ca         1 JHT       0.191600
      5 C05          5.5520    -1.1090     0.4250 ca         1 JHT      -0.206000
      6 C06          5.2090    -2.2360    -0.3000 ca         1 JHT      -0.089000
      7 C07          4.0300    -2.2950    -1.0320 ca         1 JHT      -0.180000
      8 C08          3.1820    -1.1930    -1.0370 ca         1 JHT      -0.048300
      9 C09          1.9050    -1.2110    -1.8380 c3         1 JHT       0.206100
     10 N10          0.7880    -0.6970    -1.0700 n7         1 JHT      -0.813200
     11 C11         -0.4380    -0.6090    -1.8350 c3         1 JHT       0.206100
     12 C12         -1.5390     0.0070    -1.0160 ca         1 JHT      -0.066300
     13 C13         -1.3190     1.2450    -0.3710 ca         1 JHT      -0.123000
     14 C14         -2.3150     1.8290     0.3650 ca         1 JHT      -0.100000
     15 C15         -3.5710     1.2030     0.5000 ca         1 JHT      -0.191300
     16 C16         -4.6400     1.7540     1.2500 ca         1 JHT      -0.047000
     17 C17         -5.8190     1.0880     1.3400 ca         1 JHT      -0.293300
     18 C18         -5.9520    -0.1670     0.6660 ca         1 JHT       0.678200
     19 N19         -7.1120    -0.8610     0.7910 nv         1 JHT      -0.956500
     20 N20         -4.9820    -0.6990    -0.0400 nb         1 JHT      -0.760000
     21 C21         -3.8020    -0.0400    -0.1320 ca         1 JHT       0.454600
     22 C22         -2.7570    -0.6160    -0.8880 ca         1 JHT      -0.185300
     23 C23          3.5190    -0.0560    -0.3120 ca         1 JHT      -0.185000
     24 H011         6.3710     2.1790     2.3410 h1         1 JHT       0.033700
     25 H012         6.4730     0.4370     2.5240 h1         1 JHT       0.033700
     26 H013         7.1380     1.2110     1.0810 h1         1 JHT       0.033700
     27 H031         4.2520     2.7200    -0.0200 h1         1 JHT       0.033700
     28 H032         3.1830     2.1730     1.2780 h1         1 JHT       0.033700
     29 H033         4.6150     3.1100     1.6610 h1         1 JHT       0.033700
     30 H05          6.4780    -1.1120     0.9820 ha         1 JHT       0.127000
     31 H23          2.8270     0.7740    -0.3330 ha         1 JHT       0.143000
     32 H06          5.8790    -3.0870    -0.2880 ha         1 JHT       0.124000
     33 H07          3.7730    -3.1870    -1.5920 ha         1 JHT       0.127000
     34 H091         2.0210    -0.5700    -2.7190 h1         1 JHT       0.034700
     35 H092         1.7340    -2.2270    -2.2240 h1         1 JHT       0.034700
     36 H10          0.6380    -1.2890    -0.2610 hn         1 JHT       0.364800
     37 H111        -0.2410     0.0250    -2.7070 h1         1 JHT       0.036700
     38 H112        -0.7770    -1.5780    -2.2340 h1         1 JHT       0.036700
     39 H13         -0.3530     1.7240    -0.4610 ha         1 JHT       0.144000
     40 H22         -2.9380    -1.5720    -1.3660 ha         1 JHT       0.144000
     41 H14         -2.1460     2.7810     0.8530 ha         1 JHT       0.128000
     42 H16         -4.5090     2.7070     1.7490 ha         1 JHT       0.134000
     43 H17         -6.6480     1.4860     1.9100 ha         1 JHT       0.137000
     44 H191        -7.9430    -0.3650     1.0670 hn         1 JHT       0.420800
     45 H192        -7.2630    -1.6260     0.1550 hn         1 JHT       0.420800
@<TRIPOS>BOND
     1     1     2 1   
     2     1    24 1   
     3     1    25 1   
     4     1    26 1   
     5     2     3 1   
     6     2     4 1   
     7     3    27 1   
     8     3    28 1   
     9     3    29 1   
    10     4     5 ar  
    11     4    23 ar  
    12     5     6 ar  
    13     5    30 1   
    14     6     7 ar  
    15     6    32 1   
    16     7     8 ar  
    17     7    33 1   
    18     8     9 1   
    19     8    23 ar  
    20     9    10 1   
    21     9    34 1   
    22     9    35 1   
    23    10    11 1   
    24    10    36 1   
    25    11    12 1   
    26    11    37 1   
    27    11    38 1   
    28    12    13 ar  
    29    12    22 ar  
    30    13    14 ar  
    31    13    39 1   
    32    14    15 ar  
    33    14    41 1   
    34    15    16 ar  
    35    15    21 ar  
    36    16    17 ar  
    37    16    42 1   
    38    17    18 ar  
    39    17    43 1   
    40    18    19 1   
    41    18    20 ar  
    42    19    44 1   
    43    19    45 1   
    44    20    21 ar  
    45    21    22 ar  
    46    22    40 1   
    47    23    31 1   
@<TRIPOS>SUBSTRUCTURE
     1 JHT         1 TEMP              0 ****  ****    0 ROOT
