@<TRIPOS>MOLECULE
JHU
   35    37     1     0     0
SMALL
No Charge or Current Charge


@<TRIPOS>ATOM
      1 C10        -23.5370    30.4210   -23.7660 c3         1 JHU       0.135900
      2 C13        -26.4790    31.5820   -25.9390 ca         1 JHU      -0.092500
      3 C15        -26.6320    33.0440   -28.0160 c3         1 JHU       0.204900
      4 C17        -24.4310    32.5220   -26.8500 ca         1 JHU      -0.092500
      5 C02        -25.0420    26.2930   -24.2320 ca         1 JHU       0.284000
      6 C04        -22.9580    25.7850   -25.0400 ca         1 JHU       0.455900
      7 C06        -22.2870    23.4340   -25.8400 c3         1 JHU       0.223100
      8 C07        -22.5850    27.1300   -24.8340 ca         1 JHU      -0.100600
      9 C08        -23.5210    27.9910   -24.3160 ca         1 JHU       0.132500
     10 C11        -24.3400    31.1080   -24.8620 ca         1 JHU      -0.120300
     11 C12        -25.7390    30.9540   -24.9220 ca         1 JHU      -0.090500
     12 C14        -25.8300    32.3690   -26.9100 ca         1 JHU      -0.074300
     13 C18        -23.6900    31.8940   -25.8330 ca         1 JHU      -0.090500
     14 C19        -21.5770    29.0360   -24.7090 cc         1 JHU       0.408700
     15 N03        -24.2000    25.3610   -24.7360 nb         1 JHU      -0.284000
     16 N05        -22.0570    24.8640   -25.5610 nu         1 JHU      -0.910100
     17 N09        -22.8790    29.1930   -24.2350 na         1 JHU      -0.279300
     18 N20        -21.3580    27.7610   -25.0870 nd         1 JHU      -0.552100
     19 N21        -24.7700    27.5980   -24.0020 nb         1 JHU      -0.211000
     20 O16        -27.0470    34.3520   -27.6060 oh         1 JHU      -0.661000
     21 H102       -24.1920    30.1750   -22.9200 h1         1 JHU       0.075200
     22 H101       -22.7700    31.1120   -23.3910 h1         1 JHU       0.075200
     23 H131       -27.5590    31.4560   -25.9730 ha         1 JHU       0.118000
     24 H151       -26.0150    33.1070   -28.9230 h1         1 JHU       0.029700
     25 H152       -27.5060    32.4250   -28.2580 h1         1 JHU       0.029700
     26 H171       -23.9170    33.1280   -27.5920 ha         1 JHU       0.118000
     27 H062       -21.3800    22.9700   -26.2500 h1         1 JHU       0.048033
     28 H063       -22.5620    22.9010   -24.9200 h1         1 JHU       0.048033
     29 H061       -23.0990    23.3090   -26.5690 h1         1 JHU       0.048033
     30 H121       -26.2550    30.3460   -24.1820 ha         1 JHU       0.123000
     31 H181       -22.6100    32.0200   -25.8010 ha         1 JHU       0.123000
     32 H191       -20.8680    29.8540   -24.7550 h5         1 JHU       0.067800
     33 H051       -21.1360    25.2570   -25.7690 hn         1 JHU       0.517000
     34 H161       -27.5550    34.7340   -28.3550 ho         1 JHU       0.440000
     35 Cl01       -26.6640    25.7500   -23.8350 cl         1 JHU      -0.149000
@<TRIPOS>BOND
     1     1    10 1   
     2     1    17 1   
     3     1    21 1   
     4     1    22 1   
     5     2    11 ar  
     6     2    12 ar  
     7     2    23 1   
     8     3    12 1   
     9     3    20 1   
    10     3    24 1   
    11     3    25 1   
    12     4    12 ar  
    13     4    13 ar  
    14     4    26 1   
    15     5    15 ar  
    16     5    19 ar  
    17     5    35 1   
    18     6     8 ar  
    19     6    15 ar  
    20     6    16 1   
    21     7    16 1   
    22     7    27 1   
    23     7    28 1   
    24     7    29 1   
    25     8     9 ar  
    26     8    18 1   
    27     9    17 1   
    28     9    19 ar  
    29    10    11 ar  
    30    10    13 ar  
    31    11    30 1   
    32    13    31 1   
    33    14    17 1   
    34    14    18 2   
    35    14    32 1   
    36    16    33 1   
    37    20    34 1   
@<TRIPOS>SUBSTRUCTURE
     1 JHU         1 TEMP              0 ****  ****    0 ROOT
