@<TRIPOS>MOLECULE
JHU
   35    37     1     0     0
SMALL
abcg2


@<TRIPOS>ATOM
      1 C10        -23.4850    30.4430   -23.8310 c3         1 JHU       0.135900
      2 C13        -26.2360    31.3230   -26.2990 ca         1 JHU      -0.092500
      3 C15        -26.4780    33.1180   -28.0430 c3         1 JHU       0.204900
      4 C17        -24.4310    32.8770   -26.5920 ca         1 JHU      -0.092500
      5 C02        -24.9020    26.3150   -23.9600 ca         1 JHU       0.284000
      6 C04        -22.9540    25.7440   -25.0330 ca         1 JHU       0.455900
      7 C06        -22.5440    23.4220   -25.7480 c3         1 JHU       0.223100
      8 C07        -22.5750    27.1000   -24.9210 ca         1 JHU      -0.100600
      9 C08        -23.4800    27.9510   -24.2930 ca         1 JHU       0.132500
     10 C11        -24.2660    31.1480   -24.9120 ca         1 JHU      -0.120300
     11 C12        -25.5340    30.6940   -25.2820 ca         1 JHU      -0.090500
     12 C14        -25.6940    32.4240   -26.9660 ca         1 JHU      -0.074300
     13 C18        -23.7210    32.2430   -25.5770 ca         1 JHU      -0.090500
     14 C19        -21.6850    29.0350   -24.9360 cc         1 JHU       0.408700
     15 N03        -24.1560    25.3810   -24.5310 nb         1 JHU      -0.284000
     16 N05        -22.1800    24.8210   -25.6100 nu         1 JHU      -0.910100
     17 N09        -22.8940    29.1900   -24.3030 na         1 JHU      -0.279300
     18 N20        -21.4520    27.7990   -25.3160 nd         1 JHU      -0.552100
     19 N21        -24.6750    27.5990   -23.7860 nb         1 JHU      -0.211000
     20 O16        -27.5210    33.8890   -27.4220 oh         1 JHU      -0.661000
     21 H102       -24.1250    30.1940   -22.9860 h1         1 JHU       0.075200
     22 H101       -22.6720    31.0720   -23.4710 h1         1 JHU       0.075200
     23 H131       -27.2170    30.9590   -26.5800 ha         1 JHU       0.118000
     24 H151       -25.8190    33.7700   -28.6230 h1         1 JHU       0.029700
     25 H152       -26.9170    32.3800   -28.7210 h1         1 JHU       0.029700
     26 H171       -23.9980    33.7310   -27.1000 ha         1 JHU       0.118000
     27 H062       -21.7240    22.9080   -26.2420 h1         1 JHU       0.048033
     28 H063       -22.7160    22.9650   -24.7720 h1         1 JHU       0.048033
     29 H061       -23.4500    23.3090   -26.3460 h1         1 JHU       0.048033
     30 H121       -25.9650    29.8410   -24.7730 ha         1 JHU       0.123000
     31 H181       -22.7380    32.6030   -25.2990 ha         1 JHU       0.123000
     32 H191       -21.0210    29.8730   -25.0790 h5         1 JHU       0.067800
     33 H051       -21.2940    25.1290   -25.9780 hn         1 JHU       0.517000
     34 H161       -28.0810    34.2470   -28.1220 ho         1 JHU       0.440000
     35 CL01       -26.4470    25.7410   -23.3380 cl         1 JHU      -0.149000
@<TRIPOS>BOND
     1     1    10 1   
     2     1    17 1   
     3     1    21 1   
     4     1    22 1   
     5     2    11 ar  
     6     2    12 ar  
     7     2    23 1   
     8     3    12 1   
     9     3    20 1   
    10     3    24 1   
    11     3    25 1   
    12     4    12 ar  
    13     4    13 ar  
    14     4    26 1   
    15     5    15 ar  
    16     5    19 ar  
    17     5    35 1   
    18     6     8 ar  
    19     6    15 ar  
    20     6    16 1   
    21     7    16 1   
    22     7    27 1   
    23     7    28 1   
    24     7    29 1   
    25     8     9 ar  
    26     8    18 1   
    27     9    17 1   
    28     9    19 ar  
    29    10    11 ar  
    30    10    13 ar  
    31    11    30 1   
    32    13    31 1   
    33    14    17 1   
    34    14    18 2   
    35    14    32 1   
    36    16    33 1   
    37    20    34 1   
@<TRIPOS>SUBSTRUCTURE
     1 JHU         1 TEMP              0 ****  ****    0 ROOT
