@<TRIPOS>MOLECULE
JHV
   25    26     1     0     0
SMALL
No Charge or Current Charge


@<TRIPOS>ATOM
      1 C10         -2.2980    -0.2990    -0.0980 ca         1 JHV       0.367000
      2 C15         -2.4300     0.8130     0.7360 ca         1 JHV      -0.248000
      3 C01          1.9540     1.2730    -0.2670 ca         1 JHV      -0.145000
      4 C02          0.6170     0.8490    -0.3640 ca         1 JHV      -0.068000
      5 C03          0.2760    -0.5050    -0.1610 ca         1 JHV       0.195000
      6 C04          1.3210    -1.4430     0.1320 ca         1 JHV       0.308000
      7 C05          2.6510    -1.0050     0.2210 ca         1 JHV      -0.178000
      8 C06          2.9650     0.3470     0.0250 ca         1 JHV       0.164000
      9 Cl07         4.6360     0.8830     0.1410 cl         1 JHV      -0.202000
     10 N08          1.0590    -2.7840     0.3540 nv         1 JHV      -1.075000
     11 N09         -1.0710    -0.9240    -0.3030 nu         1 JHV      -1.005000
     12 C11         -3.4390    -0.8150    -0.7080 ca         1 JHV      -0.248000
     13 C12         -4.6700    -0.1880    -0.4850 ca         1 JHV       0.369900
     14 N13         -4.8060     0.8960     0.3100 nb         1 JHV      -0.699000
     15 C14         -3.6970     1.3810     0.9100 ca         1 JHV       0.369900
     16 H151        -1.5780     1.2290     1.2610 ha         1 JHV       0.123500
     17 H021        -0.1500     1.5730    -0.6220 ha         1 JHV       0.127000
     18 H051         3.4460    -1.7100     0.4450 ha         1 JHV       0.132000
     19 H082         0.1170    -3.0360     0.6470 hn         1 JHV       0.462000
     20 H081         1.8040    -3.3740     0.7210 hn         1 JHV       0.462000
     21 H091        -1.1600    -1.8790    -0.6560 hn         1 JHV       0.501000
     22 H111        -3.3850    -1.6840    -1.3560 ha         1 JHV       0.123500
     23 H121        -5.5780    -0.5630    -0.9540 h4         1 JHV       0.014100
     24 H141        -3.8320     2.2480     1.5550 h4         1 JHV       0.014100
     25 H011         2.2070     2.3180    -0.4270 ha         1 JHV       0.136000
@<TRIPOS>BOND
     1     1     2 ar  
     2     1    11 1   
     3     1    12 ar  
     4     2    15 ar  
     5     2    16 1   
     6     3     4 ar  
     7     3     8 ar  
     8     3    25 1   
     9     4     5 ar  
    10     4    17 1   
    11     5     6 ar  
    12     5    11 1   
    13     6     7 ar  
    14     6    10 1   
    15     7     8 ar  
    16     7    18 1   
    17     8     9 1   
    18    10    19 1   
    19    10    20 1   
    20    11    21 1   
    21    12    13 ar  
    22    12    22 1   
    23    13    14 ar  
    24    13    23 1   
    25    14    15 ar  
    26    15    24 1   
@<TRIPOS>SUBSTRUCTURE
     1 JHV         1 TEMP              0 ****  ****    0 ROOT
