@<TRIPOS>MOLECULE
JHV
   25    26     1     0     0
SMALL
abcg2


@<TRIPOS>ATOM
      1 C10         -2.1720    -0.3720    -0.2610 ca         1 JHV       0.367000
      2 C15         -2.1790     0.5830     0.7650 ca         1 JHV      -0.248000
      3 C01          1.9620     1.2720    -0.5160 ca         1 JHV      -0.145000
      4 C02          0.6880     0.8150    -0.8110 ca         1 JHV      -0.068000
      5 C03          0.2740    -0.4630    -0.4620 ca         1 JHV       0.195000
      6 C04          1.1600    -1.3360     0.1960 ca         1 JHV       0.308000
      7 C05          2.4540    -0.8820     0.4810 ca         1 JHV      -0.178000
      8 C06          2.8270     0.4000     0.1280 ca         1 JHV       0.164000
      9 CL07         4.4350     0.9320     0.5080 cl         1 JHV      -0.202000
     10 N08          0.7810    -2.6150     0.5020 nv         1 JHV      -1.075000
     11 N09         -1.0280    -0.9130    -0.7620 nu         1 JHV      -1.005000
     12 C11         -3.4230    -0.7750    -0.7530 ca         1 JHV      -0.248000
     13 C12         -4.5670    -0.2240    -0.2150 ca         1 JHV       0.369900
     14 N13         -4.5810     0.6860     0.7590 nb         1 JHV      -0.699000
     15 C14         -3.3920     1.0620     1.2210 ca         1 JHV       0.369900
     16 H151        -1.2610     0.9460     1.2060 ha         1 JHV       0.123500
     17 H021        -0.0050     1.4680    -1.3260 ha         1 JHV       0.127000
     18 H051         3.1510    -1.5360     0.9890 ha         1 JHV       0.132000
     19 H082        -0.2090    -2.7770     0.5970 hn         1 JHV       0.462000
     20 H081         1.3220    -3.0820     1.2110 hn         1 JHV       0.462000
     21 H091        -1.1250    -1.6120    -1.4840 hn         1 JHV       0.501000
     22 H111        -3.4960    -1.5090    -1.5450 ha         1 JHV       0.123500
     23 H121        -5.5330    -0.5350    -0.5980 h4         1 JHV       0.014100
     24 H141        -3.3960     1.7990     2.0180 h4         1 JHV       0.014100
     25 H011         2.2710     2.2710    -0.7900 ha         1 JHV       0.136000
@<TRIPOS>BOND
     1     1     2 ar  
     2     1    11 1   
     3     1    12 ar  
     4     2    15 ar  
     5     2    16 1   
     6     3     4 ar  
     7     3     8 ar  
     8     3    25 1   
     9     4     5 ar  
    10     4    17 1   
    11     5     6 ar  
    12     5    11 1   
    13     6     7 ar  
    14     6    10 1   
    15     7     8 ar  
    16     7    18 1   
    17     8     9 1   
    18    10    19 1   
    19    10    20 1   
    20    11    21 1   
    21    12    13 ar  
    22    12    22 1   
    23    13    14 ar  
    24    13    23 1   
    25    14    15 ar  
    26    15    24 1   
@<TRIPOS>SUBSTRUCTURE
     1 JHV         1 TEMP              0 ****  ****    0 ROOT
