@<TRIPOS>MOLECULE
JHW
   35    39     1     0     0
SMALL
No Charge or Current Charge


@<TRIPOS>ATOM
      1 N1           3.7780     0.3160    -0.3390 n          1 JHW      -0.301300
      2 C2           2.1750    -1.9240    -0.2210 ca         1 JHW       0.204400
      3 N3          -2.0280    -1.6320     0.0330 nc         1 JHW      -0.534100
      4 C4           4.7270     1.4310    -0.4120 cx         1 JHW       0.023700
      5 C5           4.8590     2.4640     0.6850 cx         1 JHW      -0.124900
      6 C6           5.9900     1.5030     0.4170 cx         1 JHW      -0.124900
      7 C            2.4050     0.5540    -0.3020 c          1 JHW       0.571600
      8 C3           4.2720    -0.9810    -0.3660 cc         1 JHW       0.509800
      9 N            3.5590    -2.1070    -0.3060 nd         1 JHW      -0.623100
     10 C7           1.3890    -3.0910    -0.1440 ca         1 JHW      -0.110000
     11 C8          -0.0120    -3.0230    -0.0580 ca         1 JHW      -0.019000
     12 C9          -0.6450    -1.7730    -0.0500 ca         1 JHW       0.076400
     13 C11         -2.2860    -0.3150     0.0170 cd         1 JHW       0.411800
     14 S           -0.9070     0.8120    -0.0970 ss         1 JHW       0.151800
     15 C10          0.1220    -0.6210    -0.1270 ca         1 JHW      -0.154000
     16 C1           1.5410    -0.6640    -0.2140 ca         1 JHW      -0.177600
     17 C12         -3.6790     0.1760     0.0920 ca         1 JHW      -0.169900
     18 C16         -4.7720    -0.7160     0.1830 ca         1 JHW      -0.032000
     19 C15         -6.0700    -0.1880     0.2510 ca         1 JHW      -0.171000
     20 C14         -6.2470     1.2030     0.2280 ca         1 JHW       0.346900
     21 N2          -5.2130     2.0680     0.1420 nb         1 JHW      -0.665000
     22 C13         -3.9600     1.5590     0.0760 ca         1 JHW       0.353900
     23 H1           4.7700     1.7780    -1.4460 h1         1 JHW       0.102700
     24 H2           4.9900     3.5010     0.3870 hc         1 JHW       0.084450
     25 H3           4.2760     2.3200     1.5920 hc         1 JHW       0.084450
     26 H4           6.1710     0.7260     1.1560 hc         1 JHW       0.084450
     27 H5           6.8860     1.8930    -0.0610 hc         1 JHW       0.084450
     28 H6           5.3510    -1.0430    -0.4410 h5         1 JHW       0.052800
     29 H7           1.8730    -4.0640    -0.1500 ha         1 JHW       0.139000
     30 H8          -0.6020    -3.9340     0.0010 ha         1 JHW       0.136000
     31 H9          -4.6260    -1.7950     0.2000 ha         1 JHW       0.141000
     32 H10         -6.9330    -0.8440     0.3210 ha         1 JHW       0.127000
     33 H11         -7.2440     1.6380     0.2790 h4         1 JHW       0.021100
     34 H12         -3.1660     2.3000     0.0080 h4         1 JHW       0.024100
     35 O            1.9540     1.6920    -0.3420 o          1 JHW      -0.528000
@<TRIPOS>BOND
     1     1     4 1   
     2     1     7 1   
     3     1     8 1   
     4     2     9 1   
     5     2    10 ar  
     6     2    16 ar  
     7     3    12 1   
     8     3    13 2   
     9     4     5 1   
    10     4     6 1   
    11     4    23 1   
    12     5     6 1   
    13     5    24 1   
    14     5    25 1   
    15     6    26 1   
    16     6    27 1   
    17     7    16 1   
    18     7    35 2   
    19     8     9 2   
    20     8    28 1   
    21    10    11 ar  
    22    10    29 1   
    23    11    12 ar  
    24    11    30 1   
    25    12    15 ar  
    26    13    14 1   
    27    13    17 1   
    28    14    15 1   
    29    15    16 ar  
    30    17    18 ar  
    31    17    22 ar  
    32    18    19 ar  
    33    18    31 1   
    34    19    20 ar  
    35    19    32 1   
    36    20    21 ar  
    37    20    33 1   
    38    21    22 ar  
    39    22    34 1   
@<TRIPOS>SUBSTRUCTURE
     1 JHW         1 TEMP              0 ****  ****    0 ROOT
