@<TRIPOS>MOLECULE
JHW
   35    39     1     0     0
SMALL
abcg2


@<TRIPOS>ATOM
      1 N1           3.7150     0.3150    -0.3340 n          1 JHW      -0.301300
      2 C2           2.1820    -1.9260    -0.2290 ca         1 JHW       0.204400
      3 N3          -1.9500    -1.5690     0.0180 nc         1 JHW      -0.534100
      4 C4           4.5910     1.4540    -0.4200 cx         1 JHW       0.023700
      5 C5           4.7080     2.3680     0.7530 cx         1 JHW      -0.124900
      6 C6           5.8490     1.4720     0.3880 cx         1 JHW      -0.124900
      7 C            2.3500     0.5370    -0.2910 c          1 JHW       0.571600
      8 C3           4.2260    -0.9490    -0.3700 cc         1 JHW       0.509800
      9 N            3.5460    -2.0350    -0.3200 nd         1 JHW      -0.623100
     10 C7           1.4000    -3.0990    -0.1570 ca         1 JHW      -0.110000
     11 C8           0.0330    -3.0290    -0.0700 ca         1 JHW      -0.019000
     12 C9          -0.6020    -1.7760    -0.0580 ca         1 JHW       0.076400
     13 C11         -2.2330    -0.3090     0.0020 cd         1 JHW       0.411800
     14 S           -0.8550     0.7680    -0.1070 ss         1 JHW       0.151800
     15 C10          0.1690    -0.6140    -0.1330 ca         1 JHW      -0.154000
     16 C1           1.5600    -0.6740    -0.2140 ca         1 JHW      -0.177600
     17 C12         -3.5980     0.2040     0.0730 ca         1 JHW      -0.169900
     18 C16         -4.6680    -0.6670     0.2810 ca         1 JHW      -0.032000
     19 C15         -5.9470    -0.1490     0.3440 ca         1 JHW      -0.171000
     20 C14         -6.1200     1.2210     0.1960 ca         1 JHW       0.346900
     21 N2          -5.1120     2.0610    -0.0050 nb         1 JHW      -0.665000
     22 C13         -3.8870     1.5610    -0.0650 ca         1 JHW       0.353900
     23 H1           4.6230     1.8980    -1.4080 h1         1 JHW       0.102700
     24 H2           4.7790     3.4280     0.5520 hc         1 JHW       0.084450
     25 H3           4.1490     2.1110     1.6430 hc         1 JHW       0.084450
     26 H4           6.0560     0.6380     1.0470 hc         1 JHW       0.084450
     27 H5           6.7260     1.8960    -0.0820 hc         1 JHW       0.084450
     28 H6           5.3040    -1.0040    -0.4480 h5         1 JHW       0.052800
     29 H7           1.9030    -4.0560    -0.1700 ha         1 JHW       0.139000
     30 H8          -0.5650    -3.9290    -0.0110 ha         1 JHW       0.136000
     31 H9          -4.4950    -1.7280     0.3930 ha         1 JHW       0.141000
     32 H10         -6.8010    -0.7920     0.5070 ha         1 JHW       0.127000
     33 H11         -7.1120     1.6550     0.2420 h4         1 JHW       0.021100
     34 H12         -3.0940     2.2820    -0.2380 h4         1 JHW       0.024100
     35 O            1.8690     1.6550    -0.3170 o          1 JHW      -0.528000
@<TRIPOS>BOND
     1     1     4 1   
     2     1     7 1   
     3     1     8 1   
     4     2     9 1   
     5     2    10 ar  
     6     2    16 ar  
     7     3    12 1   
     8     3    13 2   
     9     4     5 1   
    10     4     6 1   
    11     4    23 1   
    12     5     6 1   
    13     5    24 1   
    14     5    25 1   
    15     6    26 1   
    16     6    27 1   
    17     7    16 1   
    18     7    35 2   
    19     8     9 2   
    20     8    28 1   
    21    10    11 ar  
    22    10    29 1   
    23    11    12 ar  
    24    11    30 1   
    25    12    15 ar  
    26    13    14 1   
    27    13    17 1   
    28    14    15 1   
    29    15    16 ar  
    30    17    18 ar  
    31    17    22 ar  
    32    18    19 ar  
    33    18    31 1   
    34    19    20 ar  
    35    19    32 1   
    36    20    21 ar  
    37    20    33 1   
    38    21    22 ar  
    39    22    34 1   
@<TRIPOS>SUBSTRUCTURE
     1 JHW         1 TEMP              0 ****  ****    0 ROOT
