@<TRIPOS>MOLECULE
JHX
   46    49     1     0     0
SMALL
bcc


@<TRIPOS>ATOM
      1 C1          27.3580    45.1230   -11.5480 c5         1 JHX       0.105700
      2 C2          28.0540    45.7960   -10.3690 c5         1 JHX      -0.112400
      3 C3          29.3750    46.2840   -10.9530 c5         1 JHX       0.228800
      4 N4          29.6490    45.3140   -11.9960 nh         1 JHX      -0.798300
      5 C5          28.5220    44.4420   -12.2720 c5         1 JHX       0.220800
      6 C6          30.8390    45.1990   -12.6220 ca         1 JHX       0.704200
      7 C7          31.9000    46.0960   -12.3680 ca         1 JHX      -0.321300
      8 C8          33.0920    45.9180   -13.0310 ca         1 JHX      -0.040000
      9 C9          33.2140    44.8660   -13.9320 ca         1 JHX      -0.167900
     10 C10         32.1240    44.0400   -14.1320 ca         1 JHX       0.473200
     11 N11         30.9730    44.1980   -13.4970 nb         1 JHX      -0.746000
     12 CL12        34.6940    44.5960   -14.7900 cl         1 JHX      -0.106400
     13 N13         24.4110    49.1390   -14.4110 nb         1 JHX      -0.729000
     14 C14         23.8930    48.7410   -15.5610 ca         1 JHX       0.351900
     15 C15         23.9840    47.4210   -15.9880 ca         1 JHX       0.306300
     16 N16         24.6150    46.5390   -15.2240 nb         1 JHX      -0.583000
     17 C17         25.1500    46.9100   -14.0770 ca         1 JHX       0.242500
     18 C18         25.0340    48.2530   -13.6650 ca         1 JHX       0.550300
     19 O19         25.5500    48.6280   -12.4980 os         1 JHX      -0.451100
     20 C20         25.4160    49.9900   -12.0990 c3         1 JHX       0.138700
     21 C21         23.3890    46.9760   -17.2630 cx         1 JHX      -0.199000
     22 C22         24.0510    45.8860   -18.0620 cx         1 JHX      -0.104900
     23 C23         22.7700    45.6060   -17.3560 cx         1 JHX      -0.104900
     24 N25         26.7020    46.1240   -12.3670 ns         1 JHX      -0.567900
     25 O26         25.5450    44.6300   -13.5860 o          1 JHX      -0.572100
     26 H27         26.6220    44.3890   -11.2210 h1         1 JHX       0.084700
     27 H28         27.4650    46.5960    -9.9210 hc         1 JHX       0.064700
     28 H29         28.2400    45.0480    -9.5970 hc         1 JHX       0.064700
     29 H30         29.2900    47.2990   -11.3610 h1         1 JHX       0.045200
     30 H31         30.1650    46.3030   -10.1990 h1         1 JHX       0.045200
     31 H33         28.6830    43.4370   -11.8670 h1         1 JHX       0.073700
     32 H32         28.3440    44.3380   -13.3420 h1         1 JHX       0.073700
     33 H34         31.7900    46.9160   -11.6740 ha         1 JHX       0.139000
     34 H35         33.9180    46.5930   -12.8510 ha         1 JHX       0.145000
     35 H36         32.1840    43.2140   -14.8320 h4         1 JHX       0.029100
     36 H39         25.8990    50.0580   -11.1290 h1         1 JHX       0.052033
     37 H38         25.9090    50.6630   -12.8000 h1         1 JHX       0.052033
     38 H40         24.3690    50.2760   -12.0060 h1         1 JHX       0.052033
     39 H41         22.9050    47.7650   -17.8260 hc         1 JHX       0.082700
     40 H42         24.0380    45.9840   -19.1400 hc         1 JHX       0.080950
     41 H43         24.9590    45.4590   -17.6550 hc         1 JHX       0.080950
     42 H45         22.8060    44.9890   -16.4670 hc         1 JHX       0.080950
     43 H44         21.8650    45.5080   -17.9410 hc         1 JHX       0.080950
     44 H46         26.8710    47.0970   -12.1670 hn         1 JHX       0.333500
     45 C24         25.8150    45.7880   -13.3130 c          1 JHX       0.586600
     46 H37         23.3870    49.4890   -16.1600 h4         1 JHX       0.033100
@<TRIPOS>BOND
     1     1     2 1   
     2     1     5 1   
     3     1    24 1   
     4     1    26 1   
     5     2     3 1   
     6     2    27 1   
     7     2    28 1   
     8     3     4 1   
     9     3    29 1   
    10     3    30 1   
    11     4     5 1   
    12     4     6 1   
    13     5    31 1   
    14     5    32 1   
    15     6     7 ar  
    16     6    11 ar  
    17     7     8 ar  
    18     7    33 1   
    19     8     9 ar  
    20     8    34 1   
    21     9    10 ar  
    22     9    12 1   
    23    10    11 ar  
    24    10    35 1   
    25    13    14 ar  
    26    13    18 ar  
    27    14    15 ar  
    28    14    46 1   
    29    15    16 ar  
    30    15    21 1   
    31    16    17 ar  
    32    17    18 ar  
    33    17    45 1   
    34    18    19 1   
    35    19    20 1   
    36    20    36 1   
    37    20    37 1   
    38    20    38 1   
    39    21    22 1   
    40    21    23 1   
    41    21    39 1   
    42    22    23 1   
    43    22    40 1   
    44    22    41 1   
    45    23    42 1   
    46    23    43 1   
    47    24    44 1   
    48    24    45 1   
    49    25    45 2   
@<TRIPOS>SUBSTRUCTURE
     1 JHX         1 TEMP              0 ****  ****    0 ROOT
