@<TRIPOS>MOLECULE
JHX
   46    49     1     0     0
SMALL
No Charge or Current Charge


@<TRIPOS>ATOM
      1 C1          27.1670    44.6660   -11.5060 c5         1 JHX       0.105700
      2 C2          27.7150    45.3220   -10.2090 c5         1 JHX      -0.112400
      3 C3          28.9580    46.1190   -10.6970 c5         1 JHX       0.228800
      4 N4          29.4690    45.2730   -11.8050 nh         1 JHX      -0.798300
      5 C5          28.4820    44.2300   -12.2300 c5         1 JHX       0.220800
      6 C6          30.7190    45.4590   -12.4150 ca         1 JHX       0.638900
      7 C7          31.5560    46.5480   -12.1060 ca         1 JHX      -0.238000
      8 C8          32.7960    46.6740   -12.7550 ca         1 JHX      -0.022000
      9 C9          33.1490    45.6950   -13.6940 ca         1 JHX      -0.011000
     10 C10         32.2490    44.6400   -13.9410 ca         1 JHX       0.407900
     11 N11         31.0530    44.5180   -13.3160 nb         1 JHX      -0.746000
     12 Cl12        34.6900    45.7930   -14.5440 cl         1 JHX      -0.198000
     13 N13         25.1790    49.0530   -14.7600 nb         1 JHX      -0.729000
     14 C14         24.3700    48.7090   -15.7980 ca         1 JHX       0.351900
     15 C15         24.0150    47.3620   -16.0820 ca         1 JHX       0.306300
     16 N16         24.4720    46.3350   -15.3190 nb         1 JHX      -0.583000
     17 C17         25.2930    46.6570   -14.2600 ca         1 JHX       0.242500
     18 C18         25.6430    48.0300   -13.9900 ca         1 JHX       0.550300
     19 O19         26.4710    48.3630   -12.9310 os         1 JHX      -0.474300
     20 C20         26.8560    49.7280   -12.6650 c3         1 JHX       0.161900
     21 C21         23.1130    47.0160   -17.2470 cx         1 JHX      -0.199000
     22 C22         23.2990    45.7640   -18.0820 cx         1 JHX      -0.104900
     23 C23         22.0910    45.8960   -17.1850 cx         1 JHX      -0.104900
     24 N25         26.5840    45.7770   -12.2880 ns         1 JHX      -0.500900
     25 O26         25.5440    44.3180   -13.6780 o          1 JHX      -0.572100
     26 H27         26.4690    43.8380   -11.3200 h1         1 JHX       0.084700
     27 H28         26.9810    45.9570    -9.7010 hc         1 JHX       0.064700
     28 H29         28.0180    44.5500    -9.4930 hc         1 JHX       0.064700
     29 H30         28.6800    47.1170   -11.0620 h1         1 JHX       0.045200
     30 H31         29.6920    46.2390    -9.8890 h1         1 JHX       0.045200
     31 H33         28.7990    43.2350   -11.8890 h1         1 JHX       0.073700
     32 H32         28.3500    44.1870   -13.3200 h1         1 JHX       0.073700
     33 H34         31.2550    47.2920   -11.3780 ha         1 JHX       0.121000
     34 H35         33.4620    47.5050   -12.5360 ha         1 JHX       0.127000
     35 H36         32.4940    43.8650   -14.6660 h4         1 JHX       0.029100
     36 H39         27.5150    49.7740   -11.7890 h1         1 JHX       0.052033
     37 H38         27.3970    50.1570   -13.5180 h1         1 JHX       0.052033
     38 H40         25.9760    50.3510   -12.4590 h1         1 JHX       0.052033
     39 H41         22.8050    47.9060   -17.7920 hc         1 JHX       0.082700
     40 H42         23.1440    45.8430   -19.1560 hc         1 JHX       0.080950
     41 H43         24.0700    45.0550   -17.7890 hc         1 JHX       0.080950
     42 H45         22.0560    45.2760   -16.2930 hc         1 JHX       0.080950
     43 H44         21.1260    46.0640   -17.6570 hc         1 JHX       0.080950
     44 H46         26.7970    46.7550   -12.1140 hn         1 JHX       0.333500
     45 C24         25.8060    45.4870   -13.4010 c          1 JHX       0.519600
     46 H37         23.9990    49.5250   -16.4150 h4         1 JHX       0.033100
@<TRIPOS>BOND
     1     1     2 1   
     2     1     5 1   
     3     1    24 1   
     4     1    26 1   
     5     2     3 1   
     6     2    27 1   
     7     2    28 1   
     8     3     4 1   
     9     3    29 1   
    10     3    30 1   
    11     4     5 1   
    12     4     6 1   
    13     5    31 1   
    14     5    32 1   
    15     6     7 ar  
    16     6    11 ar  
    17     7     8 ar  
    18     7    33 1   
    19     8     9 ar  
    20     8    34 1   
    21     9    10 ar  
    22     9    12 1   
    23    10    11 ar  
    24    10    35 1   
    25    13    14 ar  
    26    13    18 ar  
    27    14    15 ar  
    28    14    46 1   
    29    15    16 ar  
    30    15    21 1   
    31    16    17 ar  
    32    17    18 ar  
    33    17    45 1   
    34    18    19 1   
    35    19    20 1   
    36    20    36 1   
    37    20    37 1   
    38    20    38 1   
    39    21    22 1   
    40    21    23 1   
    41    21    39 1   
    42    22    23 1   
    43    22    40 1   
    44    22    41 1   
    45    23    42 1   
    46    23    43 1   
    47    24    44 1   
    48    24    45 1   
    49    25    45 2   
@<TRIPOS>SUBSTRUCTURE
     1 JHX         1 TEMP              0 ****  ****    0 ROOT
