@<TRIPOS>MOLECULE
JHY
   23    24     1     0     0
SMALL
No Charge or Current Charge


@<TRIPOS>ATOM
      1 O3          -2.2700    -3.1640    -0.1840 o          1 JHY      -0.504000
      2 C9          -1.3210    -2.3940    -0.1320 c          1 JHY       0.679100
      3 N           -1.3120    -1.0110    -0.3910 n          1 JHY      -0.294000
      4 C2          -2.5270    -0.2050    -0.6020 c3         1 JHY       0.131000
      5 C1          -2.9510     0.5800     0.6530 c3         1 JHY      -0.239400
      6 C           -4.2160     1.3730     0.3270 c          1 JHY       0.726000
      7 O1          -4.0840     2.4930    -0.1410 o          1 JHY      -0.729000
      8 O           -5.2940     0.8260     0.4880 o          1 JHY      -0.729000
      9 O2          -0.0200    -2.6990     0.2130 os         1 JHY      -0.300200
     10 C8           0.7560    -1.5700     0.1780 ca         1 JHY       0.045100
     11 C3          -0.0230    -0.4870    -0.1580 ca         1 JHY       0.024600
     12 C7           2.1370    -1.4670     0.3640 ca         1 JHY      -0.076000
     13 C6           2.7260    -0.1980     0.1640 ca         1 JHY       0.094000
     14 Cl1          4.4670    -0.0280     0.3920 cl         1 JHY      -0.191000
     15 C5           1.9320     0.9090    -0.2510 ca         1 JHY       0.125000
     16 Cl           2.6670     2.4830    -0.5590 cl         1 JHY      -0.182000
     17 C4           0.5410     0.7620    -0.4470 ca         1 JHY      -0.089000
     18 H21C        -2.3400     0.4960    -1.4270 h1         1 JHY       0.071200
     19 H22C        -3.3470    -0.8660    -0.9150 h1         1 JHY       0.071200
     20 H11C        -3.1510    -0.1710     1.4270 hc         1 JHY       0.032700
     21 H12C        -2.1210     1.2550     0.8920 hc         1 JHY       0.032700
     22 H7           2.7350    -2.3320     0.6340 ha         1 JHY       0.143000
     23 H4          -0.0670     1.5900    -0.8000 ha         1 JHY       0.160000
@<TRIPOS>BOND
     1     1     2 2   
     2     2     3 1   
     3     2     9 1   
     4     3     4 1   
     5     3    11 1   
     6     4     5 1   
     7     4    18 1   
     8     4    19 1   
     9     5     6 1   
    10     5    20 1   
    11     5    21 1   
    12     6     7 1   
    13     6     8 1   
    14     9    10 1   
    15    10    11 ar  
    16    10    12 ar  
    17    11    17 ar  
    18    12    13 ar  
    19    12    22 1   
    20    13    14 1   
    21    13    15 ar  
    22    15    16 1   
    23    15    17 ar  
    24    17    23 1   
@<TRIPOS>SUBSTRUCTURE
     1 JHY         1 TEMP              0 ****  ****    0 ROOT
