@<TRIPOS>MOLECULE
JHY
   23    24     1     0     0
SMALL
bcc


@<TRIPOS>ATOM
      1 O3          -2.2040    -3.0600    -0.2450 o          1 JHY      -0.579500
      2 C9          -1.2850    -2.2880    -0.2120 c          1 JHY       0.821600
      3 N           -1.2750    -0.9460    -0.4390 n          1 JHY      -0.361000
      4 C2          -2.4620    -0.1460    -0.6960 c3         1 JHY       0.131000
      5 C1          -3.0280     0.4610     0.5760 c3         1 JHY      -0.239400
      6 C           -4.2780     1.3300     0.3430 c          1 JHY       0.936600
      7 O1          -4.6680     1.4590    -0.8340 o          1 JHY      -0.834300
      8 O           -4.7910     1.8320     1.3610 o          1 JHY      -0.834300
      9 O2          -0.0060    -2.6760     0.0780 os         1 JHY      -0.300200
     10 C8           0.7840    -1.5730     0.0530 ca         1 JHY       0.045100
     11 C3           0.0040    -0.4690    -0.2630 ca         1 JHY       0.024600
     12 C7           2.1300    -1.4900     0.2900 ca         1 JHY      -0.094000
     13 C6           2.6980    -0.2200     0.2020 ca         1 JHY       0.002400
     14 CL1          4.3880    -0.0560     0.4920 cl         1 JHY      -0.099400
     15 C5           1.9250     0.8960    -0.1130 ca         1 JHY       0.033400
     16 CL           2.6540     2.4530    -0.2160 cl         1 JHY      -0.090400
     17 C4           0.5560     0.7900    -0.3510 ca         1 JHY      -0.107000
     18 H21C        -2.1900     0.6250    -1.4160 h1         1 JHY       0.071200
     19 H22C        -3.1890    -0.7890    -1.1870 h1         1 JHY       0.071200
     20 H11C        -3.2750    -0.3360     1.2840 hc         1 JHY       0.032700
     21 H12C        -2.2650     1.0690     1.0730 hc         1 JHY       0.032700
     22 H7           2.7270    -2.3570     0.5360 ha         1 JHY       0.161000
     23 H4          -0.0320     1.6650    -0.5920 ha         1 JHY       0.178000
@<TRIPOS>BOND
     1     1     2 2   
     2     2     3 1   
     3     2     9 1   
     4     3     4 1   
     5     3    11 1   
     6     4     5 1   
     7     4    18 1   
     8     4    19 1   
     9     5     6 1   
    10     5    20 1   
    11     5    21 1   
    12     6     7 1   
    13     6     8 1   
    14     9    10 1   
    15    10    11 ar  
    16    10    12 ar  
    17    11    17 ar  
    18    12    13 ar  
    19    12    22 1   
    20    13    14 1   
    21    13    15 ar  
    22    15    16 1   
    23    15    17 ar  
    24    17    23 1   
@<TRIPOS>SUBSTRUCTURE
     1 JHY         1 TEMP              0 ****  ****    0 ROOT
