@<TRIPOS>MOLECULE
JHZ
   60    62     1     0     0
SMALL
No Charge or Current Charge


@<TRIPOS>ATOM
      1 P           -0.4620     4.1470    -1.3230 p5         1 JHZ       1.480800
      2 C1          -2.2910    -0.2030    -1.2300 c6         1 JHZ       0.443300
      3 O1          -1.6850     0.6120    -2.2290 os         1 JHZ      -0.583400
      4 C2          -1.8280     0.1090     0.2180 c6         1 JHZ      -0.117400
      5 P2          -1.9660     2.1950    -2.2260 p5         1 JHZ       1.484800
      6 C3          -2.4510    -0.8520     1.2800 c6         1 JHZ       0.090200
      7 N3          -1.6570    -0.7290     2.5440 n8         1 JHZ      -0.994200
      8 C4          -2.5020    -2.3570     0.7720 c          1 JHZ       0.526100
      9 O4          -2.3780    -3.3060     1.5450 o          1 JHZ      -0.586100
     10 C5          -2.6300    -2.5750    -0.7660 c6         1 JHZ       0.098300
     11 O5          -1.9280    -1.5650    -1.5340 os         1 JHZ      -0.460000
     12 C6          -4.1090    -2.6630    -1.2430 c3         1 JHZ      -0.124100
     13 C1X          2.1560     0.4670     1.4510 c5         1 JHZ       0.357700
     14 N11          1.8730    -0.9060     0.9550 n          1 JHZ      -0.339000
     15 O1P         -1.6270     4.9700    -0.8840 o          1 JHZ      -0.848000
     16 C2X          3.6920     0.7280     1.3550 c5         1 JHZ      -0.142400
     17 C21          1.7770    -1.1670    -0.4310 c          1 JHZ       0.625000
     18 O21          2.0660    -0.3740    -1.3110 o          1 JHZ      -0.551000
     19 O2P          0.1580     4.6570    -2.5810 o          1 JHZ      -0.848000
     20 C3X          3.7650     1.9340     0.3760 c5         1 JHZ       0.127300
     21 O3X          4.8870     2.7810     0.6560 oh         1 JHZ      -0.722000
     22 N31          1.3600    -2.4120    -0.7660 ns         1 JHZ      -0.464500
     23 C3M         -3.9050    -0.4080     1.6220 c3         1 JHZ      -0.096100
     24 O3P         -1.8760     2.6940    -3.6300 o          1 JHZ      -0.832500
     25 C4X          2.3900     2.6150     0.6470 c5         1 JHZ       0.168300
     26 O4X          1.4990     1.4850     0.6830 os         1 JHZ      -0.421000
     27 C41          1.0660    -3.4560     0.0450 c          1 JHZ       0.591200
     28 O41          0.7070    -4.5260    -0.4160 o          1 JHZ      -0.542000
     29 O4P         -3.2970     2.4690    -1.6090 o          1 JHZ      -0.832500
     30 C5X          1.9640     3.6460    -0.4350 c3         1 JHZ       0.227600
     31 O5X          0.6440     4.1460    -0.1490 os         1 JHZ      -0.591400
     32 C51          1.2400    -3.1680     1.4850 cc         1 JHZ      -0.290400
     33 C5A          0.9650    -4.3130     2.4310 c3         1 JHZ      -0.005900
     34 C61          1.6350    -1.9120     1.8900 cd         1 JHZ      -0.003400
     35 OPP         -0.7460     2.6000    -1.3190 os         1 JHZ      -0.743800
     36 H1          -3.3830    -0.0830    -1.3000 h2         1 JHZ       0.075700
     37 H2          -0.7350     0.0300     0.2420 hc         1 JHZ       0.069200
     38 H2A         -2.0610     1.1450     0.4900 hc         1 JHZ       0.069200
     39 HN3         -1.9540    -1.4770     3.1810 hn         1 JHZ       0.386000
     40 HN3A        -0.6810    -0.9720     2.3420 hn         1 JHZ       0.386000
     41 H5          -2.1520    -3.5410    -0.9800 h1         1 JHZ       0.056700
     42 H6          -4.6920    -1.7650    -1.0160 hc         1 JHZ       0.054367
     43 H6A         -4.1580    -2.8260    -2.3260 hc         1 JHZ       0.054367
     44 H6B         -4.6160    -3.5080    -0.7630 hc         1 JHZ       0.054367
     45 H1X          1.8210     0.5180     2.4940 h2         1 JHZ       0.043700
     46 H2X          4.0900     0.9800     2.3440 hc         1 JHZ       0.050200
     47 H2XA         4.2600    -0.1350     0.9900 hc         1 JHZ       0.050200
     48 H3X          3.7990     1.5790    -0.6650 h1         1 JHZ       0.076700
     49 HO3X         5.6990     2.2380     0.5210 ho         1 JHZ       0.487000
     50 HN31         1.2660    -2.5850    -1.7520 hn         1 JHZ       0.429500
     51 H3M         -4.5440    -0.3550     0.7340 hc         1 JHZ       0.058700
     52 H3MA        -4.3800    -1.1020     2.3260 hc         1 JHZ       0.058700
     53 H3MB        -3.9200     0.5870     2.0840 hc         1 JHZ       0.058700
     54 H4X          2.3790     3.1060     1.6300 h1         1 JHZ       0.056700
     55 H5X          2.6880     4.4710    -0.4420 h1         1 JHZ       0.039200
     56 H5XA         2.0090     3.1540    -1.4160 h1         1 JHZ       0.039200
     57 H5A         -0.0390    -4.7250     2.2760 hc         1 JHZ       0.028033
     58 H5AA         1.6900    -5.1220     2.2860 hc         1 JHZ       0.028033
     59 H5AB         1.0330    -3.9890     3.4770 hc         1 JHZ       0.028033
     60 H61          1.7840    -1.6180     2.9260 h4         1 JHZ       0.177000
@<TRIPOS>BOND
     1     1    15 1   
     2     1    19 1   
     3     1    31 1   
     4     1    35 1   
     5     2     3 1   
     6     2     4 1   
     7     2    11 1   
     8     2    36 1   
     9     3     5 1   
    10     4     6 1   
    11     4    37 1   
    12     4    38 1   
    13     5    24 1   
    14     5    29 1   
    15     5    35 1   
    16     6     7 1   
    17     6     8 1   
    18     6    23 1   
    19     7    39 1   
    20     7    40 1   
    21     8     9 2   
    22     8    10 1   
    23    10    11 1   
    24    10    12 1   
    25    10    41 1   
    26    12    42 1   
    27    12    43 1   
    28    12    44 1   
    29    13    14 1   
    30    13    16 1   
    31    13    26 1   
    32    13    45 1   
    33    14    17 1   
    34    14    34 1   
    35    16    20 1   
    36    16    46 1   
    37    16    47 1   
    38    17    18 2   
    39    17    22 1   
    40    20    21 1   
    41    20    25 1   
    42    20    48 1   
    43    21    49 1   
    44    22    27 1   
    45    22    50 1   
    46    23    51 1   
    47    23    52 1   
    48    23    53 1   
    49    25    26 1   
    50    25    30 1   
    51    25    54 1   
    52    27    28 2   
    53    27    32 1   
    54    30    31 1   
    55    30    55 1   
    56    30    56 1   
    57    32    33 1   
    58    32    34 2   
    59    33    57 1   
    60    33    58 1   
    61    33    59 1   
    62    34    60 1   
@<TRIPOS>SUBSTRUCTURE
     1 JHZ         1 TEMP              0 ****  ****    0 ROOT
