@<TRIPOS>MOLECULE
JHZ
   60    62     1     0     0
SMALL
abcg2


@<TRIPOS>ATOM
      1 P           -0.9610     2.5010    -1.6770 p5         1 JHZ       1.480800
      2 C1          -2.0180    -1.0580    -1.0200 c6         1 JHZ       0.443300
      3 O1          -1.0840    -1.3310    -2.0160 os         1 JHZ      -0.583400
      4 C2          -1.4020    -1.3010     0.3410 c6         1 JHZ      -0.117400
      5 P2          -0.5270    -0.1260    -2.9940 p5         1 JHZ       1.484800
      6 C3          -2.4030    -1.0760     1.4740 c6         1 JHZ       0.090200
      7 N3          -1.8720    -1.6630     2.6890 n8         1 JHZ      -0.994200
      8 C4          -3.7780    -1.6450     1.0980 c          1 JHZ       0.526100
      9 O4          -4.5700    -1.9790     1.9500 o          1 JHZ      -0.586100
     10 C5          -4.1820    -1.7400    -0.3710 c6         1 JHZ       0.098300
     11 O5          -3.0820    -1.9610    -1.2250 os         1 JHZ      -0.460000
     12 C6          -5.0300    -0.5340    -0.7840 c3         1 JHZ      -0.124100
     13 C1X          2.4000     0.5070     1.7780 c5         1 JHZ       0.357700
     14 N11          2.3940    -0.6740     0.9100 n          1 JHZ      -0.339000
     15 O1P         -2.4200     2.3410    -1.3840 o          1 JHZ      -0.848000
     16 C2X          3.6580     1.3750     1.7660 c5         1 JHZ      -0.142400
     17 C21          2.5000    -0.5090    -0.4550 c          1 JHZ       0.625000
     18 O21          2.9260     0.5100    -0.9580 o          1 JHZ      -0.551000
     19 O2P         -0.4830     3.4180    -2.7580 o          1 JHZ      -0.848000
     20 C3X          3.2420     2.7010     1.1210 c5         1 JHZ       0.127300
     21 O3X          3.6630     3.8450     1.8260 oh         1 JHZ      -0.722000
     22 N31          2.0990    -1.5800    -1.2060 ns         1 JHZ      -0.464500
     23 C3M         -2.5970     0.4260     1.7200 c3         1 JHZ      -0.096100
     24 O3P          0.7940    -0.6390    -3.5020 o          1 JHZ      -0.832500
     25 C4X          1.7060     2.6500     1.1220 c5         1 JHZ       0.168300
     26 O4X          1.3210     1.3240     1.4410 os         1 JHZ      -0.421000
     27 C41          1.7110    -2.8190    -0.7440 c          1 JHZ       0.591200
     28 O41          1.3770    -3.6990    -1.5190 o          1 JHZ      -0.542000
     29 O4P         -1.5880     0.3150    -3.9460 o          1 JHZ      -0.832500
     30 C5X          1.1450     3.0770    -0.2210 c3         1 JHZ       0.227600
     31 O5X         -0.2550     2.8960    -0.2550 os         1 JHZ      -0.591400
     32 C51          1.7380    -2.9690     0.6990 cc         1 JHZ      -0.290400
     33 C5A          1.3440    -4.2780     1.2980 c3         1 JHZ      -0.005900
     34 C61          2.0290    -1.8850     1.4360 cd         1 JHZ      -0.003400
     35 OPP         -0.2340     1.0300    -1.8850 os         1 JHZ      -0.743800
     36 H1          -2.3900    -0.0310    -1.0970 h2         1 JHZ       0.075700
     37 H2          -1.0330    -2.3310     0.3700 hc         1 JHZ       0.069200
     38 H2A         -0.5500    -0.6350     0.4840 hc         1 JHZ       0.069200
     39 HN3         -2.5490    -1.5790     3.4380 hn         1 JHZ       0.386000
     40 HN3A        -1.7180    -2.6560     2.5590 hn         1 JHZ       0.386000
     41 H5          -4.8070    -2.6330    -0.4580 h1         1 JHZ       0.056700
     42 H6          -4.4680     0.4000    -0.7960 hc         1 JHZ       0.054367
     43 H6A         -5.4280    -0.6970    -1.7860 hc         1 JHZ       0.054367
     44 H6B         -5.8730    -0.4140    -0.1050 hc         1 JHZ       0.054367
     45 H1X          2.2450     0.0960     2.7780 h2         1 JHZ       0.043700
     46 H2X          3.9540     1.5630     2.8000 hc         1 JHZ       0.050200
     47 H2XA         4.4980     0.8980     1.2650 hc         1 JHZ       0.050200
     48 H3X          3.6080     2.7390     0.0900 h1         1 JHZ       0.076700
     49 HO3X         4.6010     3.9710     1.6580 ho         1 JHZ       0.487000
     50 HN31         1.8630    -1.3480    -2.1860 hn         1 JHZ       0.429500
     51 H3M         -2.9300     0.9640     0.8350 hc         1 JHZ       0.058700
     52 H3MA        -3.3200     0.6000     2.5190 hc         1 JHZ       0.058700
     53 H3MB        -1.6380     0.8540     2.0140 hc         1 JHZ       0.058700
     54 H4X          1.3290     3.3140     1.9100 h1         1 JHZ       0.056700
     55 H5X          1.4010     4.1340    -0.3650 h1         1 JHZ       0.039200
     56 H5XA         1.6450     2.5100    -1.0070 h1         1 JHZ       0.039200
     57 H5A          0.3120    -4.5350     1.0510 hc         1 JHZ       0.028033
     58 H5AA         1.9730    -5.0920     0.9350 hc         1 JHZ       0.028033
     59 H5AB         1.4290    -4.2510     2.3840 hc         1 JHZ       0.028033
     60 H61          1.9960    -1.9220     2.5170 h4         1 JHZ       0.177000
@<TRIPOS>BOND
     1     1    15 1   
     2     1    19 1   
     3     1    31 1   
     4     1    35 1   
     5     2     3 1   
     6     2     4 1   
     7     2    11 1   
     8     2    36 1   
     9     3     5 1   
    10     4     6 1   
    11     4    37 1   
    12     4    38 1   
    13     5    24 1   
    14     5    29 1   
    15     5    35 1   
    16     6     7 1   
    17     6     8 1   
    18     6    23 1   
    19     7    39 1   
    20     7    40 1   
    21     8     9 2   
    22     8    10 1   
    23    10    11 1   
    24    10    12 1   
    25    10    41 1   
    26    12    42 1   
    27    12    43 1   
    28    12    44 1   
    29    13    14 1   
    30    13    16 1   
    31    13    26 1   
    32    13    45 1   
    33    14    17 1   
    34    14    34 1   
    35    16    20 1   
    36    16    46 1   
    37    16    47 1   
    38    17    18 2   
    39    17    22 1   
    40    20    21 1   
    41    20    25 1   
    42    20    48 1   
    43    21    49 1   
    44    22    27 1   
    45    22    50 1   
    46    23    51 1   
    47    23    52 1   
    48    23    53 1   
    49    25    26 1   
    50    25    30 1   
    51    25    54 1   
    52    27    28 2   
    53    27    32 1   
    54    30    31 1   
    55    30    55 1   
    56    30    56 1   
    57    32    33 1   
    58    32    34 2   
    59    33    57 1   
    60    33    58 1   
    61    33    59 1   
    62    34    60 1   
@<TRIPOS>SUBSTRUCTURE
     1 JHZ         1 TEMP              0 ****  ****    0 ROOT
