@<TRIPOS>MOLECULE
JI0
   62    64     1     0     0
SMALL
No Charge or Current Charge


@<TRIPOS>ATOM
      1 C10         19.2030     0.7010    20.7930 ca         1 JI0      -0.076500
      2 C13         19.2740     5.8530    25.4480 c          1 JI0       0.584100
      3 C15         18.4810     7.4670    27.2140 c3         1 JI0       0.144300
      4 C17         16.1270     7.5070    28.1700 ca         1 JI0      -0.085000
      5 C21         15.0870     8.4840    25.7330 ca         1 JI0      -0.111300
      6 C22         14.5420     9.0140    24.4100 c3         1 JI0      -0.026100
      7 C24         16.4660     8.2290    25.8700 ca         1 JI0      -0.063000
      8 C26         20.7160     3.8010    25.9910 c3         1 JI0       0.000900
      9 C28         22.5260     2.0830    25.4990 ca         1 JI0      -0.079500
     10 C02         18.9120     3.3770    22.8950 c          1 JI0       0.611100
     11 C03         19.4390     3.1440    21.4730 c3         1 JI0      -0.093100
     12 C04         19.9970     1.7300    21.3370 ca         1 JI0      -0.123300
     13 C05         21.3060     1.4420    21.7740 ca         1 JI0      -0.076500
     14 C06         21.8170     0.1380    21.6600 ca         1 JI0      -0.139000
     15 C07         21.0200    -0.8810    21.1180 ca         1 JI0       0.213000
     16 C09         19.7150    -0.6040    20.6840 ca         1 JI0      -0.139000
     17 C12         19.5250     4.3460    25.1570 c3         1 JI0       0.030700
     18 C16         16.9910     7.7420    27.0840 ca         1 JI0      -0.116300
     19 C18         14.7520     7.7610    28.0430 ca         1 JI0      -0.154000
     20 C19         14.2350     8.2470    26.8330 ca         1 JI0       0.158000
     21 C23         14.4280    10.5500    24.4020 c3         1 JI0      -0.086100
     22 C27         21.1560     2.3760    25.6390 ca         1 JI0      -0.225300
     23 C29         22.9510     0.7770    25.2040 ca         1 JI0      -0.188000
     24 C30         22.0070    -0.2590    25.0420 ca         1 JI0       0.305100
     25 C36         20.6400     0.0370    25.1730 ca         1 JI0      -0.188000
     26 C37         20.2140     1.3400    25.4780 ca         1 JI0      -0.079500
     27 F08         21.5110    -2.1360    21.0100 f          1 JI0      -0.151000
     28 F20         12.9070     8.4870    26.7350 f          1 JI0      -0.196000
     29 N11         19.7440     4.1120    23.7100 ns         1 JI0      -0.479900
     30 O01         17.8350     2.9380    23.2800 o          1 JI0      -0.615100
     31 O31         22.3540    -1.5580    24.7680 os         1 JI0      -0.441500
     32 O33         23.7080    -3.6730    24.4830 o          1 JI0      -0.901833
     33 O34         24.5050    -2.0010    26.0500 o          1 JI0      -0.901833
     34 O35         24.6460    -1.5940    23.6550 o          1 JI0      -0.901833
     35 P32         23.8300    -2.2100    24.7380 p5         1 JI0       1.252900
     36 H1          18.1880     0.9090    20.4590 ha         1 JI0       0.104000
     37 H2          18.7800     7.5360    28.2690 h1         1 JI0       0.062700
     38 H3          19.0520     8.2250    26.6620 h1         1 JI0       0.062700
     39 H4          16.5210     7.1270    29.1110 ha         1 JI0       0.114000
     40 H5          13.5560     8.5810    24.2000 hc         1 JI0       0.054700
     41 H6          15.1890     8.7030    23.5800 hc         1 JI0       0.054700
     42 H7          17.1350     8.4090    25.0300 ha         1 JI0       0.134000
     43 H8          21.5610     4.4890    25.8630 hc         1 JI0       0.031700
     44 H9          20.4550     3.8440    27.0550 hc         1 JI0       0.031700
     45 H10         23.2690     2.8670    25.6250 ha         1 JI0       0.063000
     46 H11         20.2360     3.8630    21.2480 hc         1 JI0       0.047200
     47 H12         18.6150     3.2870    20.7640 hc         1 JI0       0.047200
     48 H13         21.9250     2.2250    22.2060 ha         1 JI0       0.104000
     49 H14         22.8250    -0.0860    21.9970 ha         1 JI0       0.137500
     50 H15         19.1030    -1.3990    20.2660 ha         1 JI0       0.137500
     51 H16         18.6180     3.8170    25.4720 h1         1 JI0       0.091700
     52 H17         14.0850     7.5810    28.8820 ha         1 JI0       0.124000
     53 H18         14.0400    10.9000    23.4380 hc         1 JI0       0.033367
     54 H19         13.7490    10.8920    25.1920 hc         1 JI0       0.033367
     55 H20         15.4100    11.0100    24.5660 hc         1 JI0       0.033367
     56 H21         24.0140     0.5830    25.1070 ha         1 JI0       0.132500
     57 H22         19.9080    -0.7560    25.0480 ha         1 JI0       0.132500
     58 H23         19.1510     1.5380    25.5910 ha         1 JI0       0.063000
     59 H24         20.6040     4.4480    23.2950 hn         1 JI0       0.320500
     60 H25         18.6830     5.3430    27.3430 hn         1 JI0       0.324500
     61 N14         18.8180     6.1310    26.7200 ns         1 JI0      -0.507900
     62 O25         19.4570     6.7410    24.6230 o          1 JI0      -0.635100
@<TRIPOS>BOND
     1     1    12 ar  
     2     1    16 ar  
     3     1    36 1   
     4     2    17 1   
     5     2    61 1   
     6     2    62 2   
     7     3    18 1   
     8     3    37 1   
     9     3    38 1   
    10     3    61 1   
    11     4    18 ar  
    12     4    19 ar  
    13     4    39 1   
    14     5     6 1   
    15     5     7 ar  
    16     5    20 ar  
    17     6    21 1   
    18     6    40 1   
    19     6    41 1   
    20     7    18 ar  
    21     7    42 1   
    22     8    17 1   
    23     8    22 1   
    24     8    43 1   
    25     8    44 1   
    26     9    22 ar  
    27     9    23 ar  
    28     9    45 1   
    29    10    11 1   
    30    10    29 1   
    31    10    30 2   
    32    11    12 1   
    33    11    46 1   
    34    11    47 1   
    35    12    13 ar  
    36    13    14 ar  
    37    13    48 1   
    38    14    15 ar  
    39    14    49 1   
    40    15    16 ar  
    41    15    27 1   
    42    16    50 1   
    43    17    29 1   
    44    17    51 1   
    45    19    20 ar  
    46    19    52 1   
    47    20    28 1   
    48    21    53 1   
    49    21    54 1   
    50    21    55 1   
    51    22    26 ar  
    52    23    24 ar  
    53    23    56 1   
    54    24    25 ar  
    55    24    31 1   
    56    25    26 ar  
    57    25    57 1   
    58    26    58 1   
    59    29    59 1   
    60    31    35 1   
    61    32    35 1   
    62    33    35 1   
    63    34    35 1   
    64    60    61 1   
@<TRIPOS>SUBSTRUCTURE
     1 JI0         1 TEMP              0 ****  ****    0 ROOT
