@<TRIPOS>MOLECULE
JI0
   62    64     1     0     0
SMALL
abcg2


@<TRIPOS>ATOM
      1 C10         19.6640     0.8360    21.4450 ca         1 JI0      -0.076500
      2 C13         19.5160     5.8290    25.6840 c          1 JI0       0.584100
      3 C15         18.4870     7.3550    27.3380 c3         1 JI0       0.144300
      4 C17         16.2740     8.0650    28.3210 ca         1 JI0      -0.085000
      5 C21         15.1100     8.1840    25.7630 ca         1 JI0      -0.111300
      6 C22         14.4850     8.2870    24.3980 c3         1 JI0      -0.026100
      7 C24         16.4440     7.8260    25.9380 ca         1 JI0      -0.063000
      8 C26         20.9060     3.7640    26.0120 c3         1 JI0       0.000900
      9 C28         22.0780     1.9280    24.7360 ca         1 JI0      -0.079500
     10 C02         19.0020     3.4320    23.1130 c          1 JI0       0.611100
     11 C03         19.3780     3.3410    21.6400 c3         1 JI0      -0.093100
     12 C04         20.2210     2.1140    21.3710 ca         1 JI0      -0.123300
     13 C05         21.5740     2.2370    21.0620 ca         1 JI0      -0.076500
     14 C06         22.3630     1.1160    20.8260 ca         1 JI0      -0.139000
     15 C07         21.7740    -0.1290    20.9130 ca         1 JI0       0.213000
     16 C09         20.4370    -0.2970    21.2200 ca         1 JI0      -0.139000
     17 C12         19.6710     4.3590    25.2940 c3         1 JI0       0.030700
     18 C16         17.0380     7.7610    27.1990 ca         1 JI0      -0.116300
     19 C18         14.9370     8.4300    28.1860 ca         1 JI0      -0.154000
     20 C19         14.3920     8.4790    26.9190 ca         1 JI0       0.158000
     21 C23         14.4450     9.7300    23.8770 c3         1 JI0      -0.086100
     22 C27         21.1170     2.3140    25.6700 ca         1 JI0      -0.225300
     23 C29         22.2430     0.5980    24.3720 ca         1 JI0      -0.188000
     24 C30         21.4330    -0.3900    24.9330 ca         1 JI0       0.305100
     25 C36         20.4710    -0.0150    25.8750 ca         1 JI0      -0.188000
     26 C37         20.3180     1.3180    26.2350 ca         1 JI0      -0.079500
     27 F08         22.5360    -1.2330    20.6900 f          1 JI0      -0.151000
     28 F20         13.0800     8.8270    26.7960 f          1 JI0      -0.196000
     29 N11         19.7830     4.2390    23.8580 ns         1 JI0      -0.479900
     30 O01         18.0620     2.7850    23.5750 o          1 JI0      -0.615100
     31 O31         21.5090    -1.6900    24.5480 os         1 JI0      -0.441500
     32 O33         22.4160    -3.9860    24.2370 o          1 JI0      -0.901833
     33 O34         23.0980    -2.6440    26.3170 o          1 JI0      -0.901833
     34 O35         24.0280    -2.0080    24.0240 o          1 JI0      -0.901833
     35 P32         22.9040    -2.6660    24.8080 p5         1 JI0       1.252900
     36 H1          18.6160     0.7220    21.6870 ha         1 JI0       0.104000
     37 H2          18.7700     7.3520    28.3910 h1         1 JI0       0.062700
     38 H3          19.1360     8.0580    26.8170 h1         1 JI0       0.062700
     39 H4          16.7170     8.0130    29.3080 ha         1 JI0       0.114000
     40 H5          13.4700     7.8850    24.4270 hc         1 JI0       0.054700
     41 H6          15.0570     7.6660    23.7060 hc         1 JI0       0.054700
     42 H7          17.0310     7.5820    25.0590 ha         1 JI0       0.134000
     43 H8          21.7830     4.3490    25.7270 hc         1 JI0       0.031700
     44 H9          20.7590     3.8900    27.0860 hc         1 JI0       0.031700
     45 H10         22.7020     2.6850    24.2740 ha         1 JI0       0.063000
     46 H11         19.9160     4.2360    21.3260 hc         1 JI0       0.047200
     47 H12         18.4440     3.2890    21.0790 hc         1 JI0       0.047200
     48 H13         22.0230     3.2210    21.0050 ha         1 JI0       0.104000
     49 H14         23.4150     1.2050    20.5880 ha         1 JI0       0.137500
     50 H15         20.0150    -1.2910    21.2840 ha         1 JI0       0.137500
     51 H16         18.7850     3.8010    25.5880 h1         1 JI0       0.091700
     52 H17         14.3240     8.6640    29.0460 ha         1 JI0       0.124000
     53 H18         13.9920     9.7670    22.8840 hc         1 JI0       0.033367
     54 H19         13.8620    10.3700    24.5410 hc         1 JI0       0.033367
     55 H20         15.4540    10.1420    23.8080 hc         1 JI0       0.033367
     56 H21         22.9890     0.3100    23.6480 ha         1 JI0       0.132500
     57 H22         19.8440    -0.7810    26.3150 ha         1 JI0       0.132500
     58 H23         19.5610     1.5890    26.9620 ha         1 JI0       0.063000
     59 H24         20.5320     4.7440    23.4090 hn         1 JI0       0.320500
     60 H25         18.2750     5.2530    27.1800 hn         1 JI0       0.324500
     61 N14         18.7480     6.0420    26.7660 ns         1 JI0      -0.507900
     62 O25         20.0990     6.7180    25.0640 o          1 JI0      -0.635100
@<TRIPOS>BOND
     1     1    12 ar  
     2     1    16 ar  
     3     1    36 1   
     4     2    17 1   
     5     2    61 1   
     6     2    62 2   
     7     3    18 1   
     8     3    37 1   
     9     3    38 1   
    10     3    61 1   
    11     4    18 ar  
    12     4    19 ar  
    13     4    39 1   
    14     5     6 1   
    15     5     7 ar  
    16     5    20 ar  
    17     6    21 1   
    18     6    40 1   
    19     6    41 1   
    20     7    18 ar  
    21     7    42 1   
    22     8    17 1   
    23     8    22 1   
    24     8    43 1   
    25     8    44 1   
    26     9    22 ar  
    27     9    23 ar  
    28     9    45 1   
    29    10    11 1   
    30    10    29 1   
    31    10    30 2   
    32    11    12 1   
    33    11    46 1   
    34    11    47 1   
    35    12    13 ar  
    36    13    14 ar  
    37    13    48 1   
    38    14    15 ar  
    39    14    49 1   
    40    15    16 ar  
    41    15    27 1   
    42    16    50 1   
    43    17    29 1   
    44    17    51 1   
    45    19    20 ar  
    46    19    52 1   
    47    20    28 1   
    48    21    53 1   
    49    21    54 1   
    50    21    55 1   
    51    22    26 ar  
    52    23    24 ar  
    53    23    56 1   
    54    24    25 ar  
    55    24    31 1   
    56    25    26 ar  
    57    25    57 1   
    58    26    58 1   
    59    29    59 1   
    60    31    35 1   
    61    32    35 1   
    62    33    35 1   
    63    34    35 1   
    64    60    61 1   
@<TRIPOS>SUBSTRUCTURE
     1 JI0         1 TEMP              0 ****  ****    0 ROOT
