@<TRIPOS>MOLECULE
JI1
   40    41     1     0     0
SMALL
No Charge or Current Charge


@<TRIPOS>ATOM
      1 N1          -2.7340     0.8350    -0.8890 nb         1 JI1      -0.751000
      2 C2          -4.0500     0.8680    -1.0440 ca         1 JI1       0.595900
      3 N2          -4.3860     0.8150    -2.3340 nv         1 JI1      -1.052900
      4 C3          -4.9800     0.9600    -0.0060 ca         1 JI1      -0.232000
      5 C4          -4.5030     1.0170     1.3110 ca         1 JI1      -0.036000
      6 C5          -3.1120     0.9800     1.5000 ca         1 JI1      -0.216000
      7 C6          -2.2630     0.8900     0.3790 ca         1 JI1       0.396300
      8 N3           0.6600    -2.6940     0.2300 n7         1 JI1      -0.824400
      9 C8           1.4010    -2.2000     1.4270 c5         1 JI1       0.098800
     10 C12          1.2990    -0.6460     1.3180 c5         1 JI1       0.141500
     11 C13         -0.2260    -0.5490     1.0140 c5         1 JI1      -0.088700
     12 C14         -0.4430    -1.7150    -0.0080 c5         1 JI1       0.132800
     13 C7          -0.7520     0.8400     0.5540 c3         1 JI1      -0.109700
     14 C10          4.1750     0.3620    -1.0350 c3         1 JI1      -0.085400
     15 C11          5.7060     0.4900    -0.9250 c3         1 JI1       0.164600
     16 O12          6.2490     0.9180    -2.1780 oh         1 JI1      -0.660000
     17 HN21        -3.6240     0.9890    -2.9760 hn         1 JI1       0.467500
     18 HN22        -5.2960     1.1760    -2.5980 hn         1 JI1       0.467500
     19 H3          -6.0450     0.9840    -0.2150 ha         1 JI1       0.120000
     20 H4          -5.1860     1.0870     2.1560 ha         1 JI1       0.114000
     21 H5          -2.6930     1.0200     2.5010 ha         1 JI1       0.123000
     22 HN1          0.2850    -3.6350     0.4050 hn         1 JI1       0.397000
     23 H2'1         0.9130    -2.5460     2.3500 h1         1 JI1       0.051700
     24 H2'2         2.4380    -2.5630     1.4480 h1         1 JI1       0.051700
     25 H6           1.5910    -0.1150     2.2360 h1         1 JI1       0.058700
     26 H8          -0.7750    -0.7800     1.9350 hc         1 JI1       0.047700
     27 H5'1        -0.3970    -1.3460    -1.0430 h1         1 JI1       0.065700
     28 H5'2        -1.4320    -2.1770     0.1260 h1         1 JI1       0.065700
     29 H71         -0.2610     1.1350    -0.3810 hc         1 JI1       0.066200
     30 H72         -0.4570     1.5970     1.2890 hc         1 JI1       0.066200
     31 HN8          1.8690    -0.9020    -0.5970 hn         1 JI1       0.414000
     32 H91          3.7750     0.6210     1.0750 h1         1 JI1       0.026700
     33 H92          3.9510    -1.0720     0.5670 h1         1 JI1       0.026700
     34 H101         3.9300    -0.3530    -1.8300 hc         1 JI1       0.060200
     35 H102         3.7530     1.3310    -1.3260 hc         1 JI1       0.060200
     36 H111         5.9530     1.2130    -0.1360 h1         1 JI1       0.014700
     37 H112         6.1310    -0.4820    -0.6390 h1         1 JI1       0.014700
     38 HO12         7.2230     0.9860    -2.0580 ho         1 JI1       0.442000
     39 N8           2.0660    -0.1960     0.1230 n7         1 JI1      -0.857400
     40 C9           3.5270    -0.0990     0.2830 c3         1 JI1       0.161800
@<TRIPOS>BOND
     1     1     2 ar  
     2     1     7 ar  
     3     2     3 1   
     4     2     4 ar  
     5     3    17 1   
     6     3    18 1   
     7     4     5 ar  
     8     4    19 1   
     9     5     6 ar  
    10     5    20 1   
    11     6     7 ar  
    12     6    21 1   
    13     7    13 1   
    14     8     9 1   
    15     8    12 1   
    16     8    22 1   
    17     9    10 1   
    18     9    23 1   
    19     9    24 1   
    20    10    11 1   
    21    10    25 1   
    22    10    39 1   
    23    11    12 1   
    24    11    13 1   
    25    11    26 1   
    26    12    27 1   
    27    12    28 1   
    28    13    29 1   
    29    13    30 1   
    30    14    15 1   
    31    14    34 1   
    32    14    35 1   
    33    14    40 1   
    34    15    16 1   
    35    15    36 1   
    36    15    37 1   
    37    16    38 1   
    38    31    39 1   
    39    32    40 1   
    40    33    40 1   
    41    39    40 1   
@<TRIPOS>SUBSTRUCTURE
     1 JI1         1 TEMP              0 ****  ****    0 ROOT
