@<TRIPOS>MOLECULE
JI1
   40    41     1     0     0
SMALL
abcg2


@<TRIPOS>ATOM
      1 N1          -2.8170     0.4030    -0.9340 nb         1 JI1      -0.751000
      2 C2          -4.1430     0.5260    -0.9480 ca         1 JI1       0.595900
      3 N2          -4.8030    -0.0220    -2.0110 nv         1 JI1      -1.052900
      4 C3          -4.8470     1.1480     0.0960 ca         1 JI1      -0.232000
      5 C4          -4.1220     1.6400     1.1600 ca         1 JI1      -0.036000
      6 C5          -2.7380     1.5090     1.1770 ca         1 JI1      -0.216000
      7 C6          -2.1260     0.8770     0.1020 ca         1 JI1       0.396300
      8 N3           0.0360    -2.9730     0.7620 n7         1 JI1      -0.824400
      9 C8           1.3840    -2.4170     0.7450 c5         1 JI1       0.098800
     10 C12          1.2780    -0.8740     0.9330 c5         1 JI1       0.141500
     11 C13         -0.2470    -0.6060     0.8280 c5         1 JI1      -0.088700
     12 C14         -0.8000    -1.9060     0.2320 c5         1 JI1       0.132800
     13 C7          -0.6390     0.6660     0.0790 c3         1 JI1      -0.109700
     14 C10          4.2750     0.7410    -0.6740 c3         1 JI1      -0.085400
     15 C11          5.7710     0.6410    -0.4490 c3         1 JI1       0.164600
     16 O12          6.4260     1.5460    -1.3130 oh         1 JI1      -0.660000
     17 HN21        -4.2470    -0.1970    -2.8320 hn         1 JI1       0.467500
     18 HN22        -5.7270     0.3250    -2.2110 hn         1 JI1       0.467500
     19 H3          -5.9250     1.2380     0.0580 ha         1 JI1       0.120000
     20 H4          -4.6340     2.1310     1.9790 ha         1 JI1       0.114000
     21 H5          -2.1490     1.8930     1.9990 ha         1 JI1       0.123000
     22 HN1         -0.2350    -3.1430     1.7230 hn         1 JI1       0.397000
     23 H2'1         2.0070    -2.9040     1.4960 h1         1 JI1       0.051700
     24 H2'2         1.8380    -2.6200    -0.2330 h1         1 JI1       0.051700
     25 H6           1.6160    -0.6000     1.9370 h1         1 JI1       0.058700
     26 H8          -0.6330    -0.5240     1.8500 hc         1 JI1       0.047700
     27 H5'1        -0.7130    -1.8860    -0.8610 h1         1 JI1       0.065700
     28 H5'2        -1.8500    -2.0810     0.4670 h1         1 JI1       0.065700
     29 H71         -0.3100     0.6080    -0.9610 hc         1 JI1       0.066200
     30 H72         -0.1340     1.5220     0.5300 hc         1 JI1       0.066200
     31 HN8          1.8680    -0.3660    -0.9420 hn         1 JI1       0.414000
     32 H91          3.7040     0.0480     1.2790 h1         1 JI1       0.026700
     33 H92          3.8790    -1.2310     0.0910 h1         1 JI1       0.026700
     34 H101         4.0500     0.5100    -1.7210 hc         1 JI1       0.060200
     35 H102         3.9410     1.7650    -0.4890 hc         1 JI1       0.060200
     36 H111         5.9950     0.8610     0.6030 h1         1 JI1       0.014700
     37 H112         6.1000    -0.3910    -0.6300 h1         1 JI1       0.014700
     38 HO12         7.3720     1.4810    -1.1520 ho         1 JI1       0.442000
     39 N8           2.0740    -0.0870     0.0120 n7         1 JI1      -0.857400
     40 C9           3.5030    -0.2050     0.2330 c3         1 JI1       0.161800
@<TRIPOS>BOND
     1     1     2 ar  
     2     1     7 ar  
     3     2     3 1   
     4     2     4 ar  
     5     3    17 1   
     6     3    18 1   
     7     4     5 ar  
     8     4    19 1   
     9     5     6 ar  
    10     5    20 1   
    11     6     7 ar  
    12     6    21 1   
    13     7    13 1   
    14     8     9 1   
    15     8    12 1   
    16     8    22 1   
    17     9    10 1   
    18     9    23 1   
    19     9    24 1   
    20    10    11 1   
    21    10    25 1   
    22    10    39 1   
    23    11    12 1   
    24    11    13 1   
    25    11    26 1   
    26    12    27 1   
    27    12    28 1   
    28    13    29 1   
    29    13    30 1   
    30    14    15 1   
    31    14    34 1   
    32    14    35 1   
    33    14    40 1   
    34    15    16 1   
    35    15    36 1   
    36    15    37 1   
    37    16    38 1   
    38    31    39 1   
    39    32    40 1   
    40    33    40 1   
    41    39    40 1   
@<TRIPOS>SUBSTRUCTURE
     1 JI1         1 TEMP              0 ****  ****    0 ROOT
