@<TRIPOS>MOLECULE
JI2
   38    39     1     0     0
SMALL
abcg2


@<TRIPOS>ATOM
      1 C6          -3.8250     0.1660    -0.8200 ca         1 JI2       0.596900
      2 N6          -4.5070    -0.5440    -1.7670 nv         1 JI2      -1.052900
      3 C5          -4.5070     0.8430     0.2050 ca         1 JI2      -0.232000
      4 C4          -3.7570     1.4980     1.1580 ca         1 JI2      -0.035000
      5 C3          -2.3680     1.4720     1.0850 ca         1 JI2      -0.216000
      6 C2          -1.7800     0.7780     0.0360 ca         1 JI2       0.395300
      7 N1          -2.4960     0.1470    -0.8940 nb         1 JI2      -0.752000
      8 N2           0.7600    -2.8120     0.8220 n7         1 JI2      -0.823400
      9 C13          2.0310    -2.1420     0.5900 c5         1 JI2       0.098800
     10 C12          1.8120    -0.6150     0.7770 c5         1 JI2       0.142500
     11 C11          0.2620    -0.4700     0.7690 c5         1 JI2      -0.088700
     12 C8          -0.2330    -1.8600     0.3450 c5         1 JI2       0.132800
     13 C7          -0.2840     0.6810    -0.0740 c3         1 JI2      -0.110700
     14 C10          4.5590     1.2560    -0.9810 c3         1 JI2       0.144800
     15 N11          6.0110     1.2170    -0.8840 n8         1 JI2      -0.997200
     16 HN61        -3.9940    -0.7680    -2.6040 hn         1 JI2       0.467500
     17 HN62        -5.4680    -0.2950    -1.9330 hn         1 JI2       0.467500
     18 H5          -5.5890     0.8470     0.2390 ha         1 JI2       0.120000
     19 H4          -4.2530     2.0330     1.9580 ha         1 JI2       0.114000
     20 H3          -1.7580     1.9790     1.8200 ha         1 JI2       0.123000
     21 HN1          0.6320    -2.9370     1.8190 hn         1 JI2       0.397000
     22 H2'1         2.8080    -2.5510     1.2350 h1         1 JI2       0.053700
     23 H2'2         2.3440    -2.3240    -0.4460 h1         1 JI2       0.053700
     24 H8           2.1830    -0.3130     1.7610 h1         1 JI2       0.057700
     25 H6          -0.0580    -0.3050     1.8030 hc         1 JI2       0.047700
     26 H5'1        -0.2940    -1.9210    -0.7470 h1         1 JI2       0.065700
     27 H5'2        -1.2220    -2.1030     0.7350 h1         1 JI2       0.065700
     28 H71         -0.0180     0.5390    -1.1240 hc         1 JI2       0.064700
     29 H72          0.1720     1.6180     0.2520 hc         1 JI2       0.064700
     30 HN8          2.2380    -0.0560    -1.1260 hn         1 JI2       0.412000
     31 H91          4.1900     0.4490     0.9740 h1         1 JI2       0.037200
     32 H92          4.3880    -0.7640    -0.2830 h1         1 JI2       0.037200
     33 H101         4.2800     1.0330    -2.0150 h1         1 JI2       0.035200
     34 H102         4.1210     2.2360    -0.7450 h1         1 JI2       0.035200
     35 H111         6.4080     1.8860    -1.5310 hn         1 JI2       0.393000
     36 H112         6.2940     1.5320     0.0360 hn         1 JI2       0.393000
     37 N8           2.4880     0.2310    -0.1860 n7         1 JI2      -0.862400
     38 C9           3.9340     0.2150    -0.0660 c3         1 JI2       0.155800
@<TRIPOS>BOND
     1     1     2 1   
     2     1     3 ar  
     3     1     7 ar  
     4     2    16 1   
     5     2    17 1   
     6     3     4 ar  
     7     3    18 1   
     8     4     5 ar  
     9     4    19 1   
    10     5     6 ar  
    11     5    20 1   
    12     6     7 ar  
    13     6    13 1   
    14     8     9 1   
    15     8    12 1   
    16     8    21 1   
    17     9    10 1   
    18     9    22 1   
    19     9    23 1   
    20    10    11 1   
    21    10    24 1   
    22    10    37 1   
    23    11    12 1   
    24    11    13 1   
    25    11    25 1   
    26    12    26 1   
    27    12    27 1   
    28    13    28 1   
    29    13    29 1   
    30    14    15 1   
    31    14    33 1   
    32    14    34 1   
    33    14    38 1   
    34    15    35 1   
    35    15    36 1   
    36    30    37 1   
    37    31    38 1   
    38    32    38 1   
    39    37    38 1   
@<TRIPOS>SUBSTRUCTURE
     1 JI2         1 TEMP              0 ****  ****    0 ROOT
