@<TRIPOS>MOLECULE
JI2
   38    39     1     0     0
SMALL
No Charge or Current Charge


@<TRIPOS>ATOM
      1 C6          -3.7810     0.5070    -0.9280 ca         1 JI2       0.596900
      2 N6          -4.2040     0.2940    -2.1750 nv         1 JI2      -1.052900
      3 C5          -4.6380     0.6350     0.1670 ca         1 JI2      -0.232000
      4 C4          -4.0730     0.8670     1.4290 ca         1 JI2      -0.035000
      5 C3          -2.6750     0.9590     1.5070 ca         1 JI2      -0.216000
      6 C2          -1.9050     0.8190     0.3350 ca         1 JI2       0.395300
      7 N1          -2.4600     0.5950    -0.8780 nb         1 JI2      -0.752000
      8 N2           1.2970    -2.5220     0.3090 n7         1 JI2      -0.823400
      9 C13          2.0780    -1.8470     1.3850 c5         1 JI2       0.098800
     10 C12          1.8370    -0.3270     1.1300 c5         1 JI2       0.142500
     11 C11          0.2900    -0.3800     0.9430 c5         1 JI2      -0.088700
     12 C8           0.1000    -1.6620     0.0630 c5         1 JI2       0.132800
     13 C7          -0.3850     0.9060     0.3920 c3         1 JI2      -0.110700
     14 C10          4.4790     0.6640    -1.5370 c3         1 JI2       0.144800
     15 N11          5.9430     0.9080    -1.5540 n8         1 JI2      -0.997200
     16 HN61        -3.5080     0.4600    -2.8910 hn         1 JI2       0.467500
     17 HN62        -5.1580     0.5530    -2.4000 hn         1 JI2       0.467500
     18 H5          -5.7140     0.5530     0.0440 ha         1 JI2       0.120000
     19 H4          -4.6960     0.9710     2.3160 ha         1 JI2       0.114000
     20 H3          -2.1880     1.1370     2.4630 ha         1 JI2       0.123000
     21 HN1          1.0160    -3.4650     0.6070 hn         1 JI2       0.397000
     22 H2'1         1.6910    -2.1300     2.3750 h1         1 JI2       0.053700
     23 H2'2         3.1410    -2.1250     1.3580 h1         1 JI2       0.053700
     24 H8           2.1470     0.3200     1.9650 h1         1 JI2       0.057700
     25 H6          -0.1680    -0.5550     1.9240 hc         1 JI2       0.047700
     26 H5'1         0.0400    -1.4020    -1.0030 h1         1 JI2       0.065700
     27 H5'2        -0.8340    -2.1810     0.3220 h1         1 JI2       0.065700
     28 H71          0.0090     1.1390    -0.6050 hc         1 JI2       0.064700
     29 H72         -0.1040     1.7580     1.0220 hc         1 JI2       0.064700
     30 HN8          2.2870    -0.7370    -0.7910 hn         1 JI2       0.412000
     31 H91          4.1760     1.0900     0.5740 h1         1 JI2       0.037200
     32 H92          4.4580    -0.6230     0.2140 h1         1 JI2       0.037200
     33 H101         4.2550    -0.1480    -2.2430 h1         1 JI2       0.035200
     34 H102         3.9690     1.5720    -1.8870 h1         1 JI2       0.035200
     35 H111         6.2200     1.2090    -2.4970 hn         1 JI2       0.393000
     36 H112         6.1510     1.7290    -0.9710 hn         1 JI2       0.393000
     37 N8           2.4750     0.0530    -0.1620 n7         1 JI2      -0.862400
     38 C9           3.9370     0.2810    -0.1290 c3         1 JI2       0.155800
@<TRIPOS>BOND
     1     1     2 1   
     2     1     3 ar  
     3     1     7 ar  
     4     2    16 1   
     5     2    17 1   
     6     3     4 ar  
     7     3    18 1   
     8     4     5 ar  
     9     4    19 1   
    10     5     6 ar  
    11     5    20 1   
    12     6     7 ar  
    13     6    13 1   
    14     8     9 1   
    15     8    12 1   
    16     8    21 1   
    17     9    10 1   
    18     9    22 1   
    19     9    23 1   
    20    10    11 1   
    21    10    24 1   
    22    10    37 1   
    23    11    12 1   
    24    11    13 1   
    25    11    25 1   
    26    12    26 1   
    27    12    27 1   
    28    13    28 1   
    29    13    29 1   
    30    14    15 1   
    31    14    33 1   
    32    14    34 1   
    33    14    38 1   
    34    15    35 1   
    35    15    36 1   
    36    30    37 1   
    37    31    38 1   
    38    32    38 1   
    39    37    38 1   
@<TRIPOS>SUBSTRUCTURE
     1 JI2         1 TEMP              0 ****  ****    0 ROOT
