@<TRIPOS>MOLECULE
JI3
   54    56     1     0     0
SMALL
No Charge or Current Charge


@<TRIPOS>ATOM
      1 C21         -0.5090     8.0770    -6.3770 ca         1 JI3      -0.090000
      2 C22         -0.9810     8.3230    -7.6790 ca         1 JI3      -0.107000
      3 C23         -2.3590     8.4630    -7.9110 ca         1 JI3       0.122000
      4 Cl          -2.9490     8.7700    -9.5390 cl         1 JI3      -0.207000
      5 C24         -3.2670     8.3590    -6.8450 ca         1 JI3      -0.107000
      6 C25         -2.7950     8.1140    -5.5420 ca         1 JI3      -0.090000
      7 C26         -1.4140     7.9720    -5.3010 ca         1 JI3      -0.088300
      8 C6           5.1220     0.1850    -2.1520 ca         1 JI3       0.593900
      9 N6           6.1120    -0.2990    -1.3990 nv         1 JI3      -1.050900
     10 C5           4.9890    -0.0860    -3.5160 ca         1 JI3      -0.234000
     11 C4           3.9030     0.4740    -4.2050 ca         1 JI3      -0.001300
     12 C3           3.0160     1.2740    -3.4670 ca         1 JI3      -0.223000
     13 C2           3.2400     1.4760    -2.0910 ca         1 JI3       0.399300
     14 N1           4.2930     0.9320    -1.4390 nb         1 JI3      -0.741000
     15 N2           0.8050     0.8720     1.1690 n7         1 JI3      -0.863400
     16 C15          0.3210     2.2870     1.1560 c5         1 JI3       0.154800
     17 C14         -0.1890     2.5410    -0.2990 c5         1 JI3       0.150500
     18 C13          0.8590     1.7220    -1.1130 c5         1 JI3      -0.059700
     19 C11          0.8180     0.4240    -0.2550 c5         1 JI3       0.156800
     20 C7           2.2890     2.3360    -1.2700 c3         1 JI3      -0.118700
     21 N8          -0.1310     3.9940    -0.6320 n7         1 JI3      -0.859400
     22 C9          -0.6420     4.3710    -1.9720 c3         1 JI3       0.155800
     23 C10         -0.4890     5.8950    -2.2320 c3         1 JI3       0.153800
     24 N11         -0.9950     6.2740    -3.5710 n7         1 JI3      -0.866400
     25 C12         -0.9050     7.7090    -3.8900 c3         1 JI3       0.208100
     26 H21          0.5600     7.9690    -6.2050 ha         1 JI3       0.123500
     27 H22         -0.2810     8.4030    -8.5070 ha         1 JI3       0.129000
     28 H24         -4.3330     8.4670    -7.0270 ha         1 JI3       0.129000
     29 H25         -3.5020     8.0300    -4.7190 ha         1 JI3       0.123500
     30 HN61         6.5920    -1.1270    -1.7340 hn         1 JI3       0.466000
     31 HN62         5.9700    -0.2260    -0.3990 hn         1 JI3       0.466000
     32 H5           5.7150    -0.7110    -4.0270 ha         1 JI3       0.118000
     33 H3           2.1620     1.7380    -3.9520 ha         1 JI3       0.117000
     34 HN1          0.1490     0.2800     1.6960 hn         1 JI3       0.410000
     35 H2'1         1.1520     2.9640     1.4000 h1         1 JI3       0.047200
     36 H2'2        -0.4680     2.4550     1.9030 h1         1 JI3       0.047200
     37 H6          -1.2050     2.1420    -0.4330 h1         1 JI3       0.018700
     38 H4           0.4860     1.5230    -2.1240 hc         1 JI3       0.052700
     39 H5'1        -0.1030    -0.1360    -0.4740 h1         1 JI3       0.042200
     40 H5'2         1.6620    -0.2500    -0.4630 h1         1 JI3       0.042200
     41 H71          2.7260     2.5360    -0.2850 hc         1 JI3       0.073200
     42 H72          2.2180     3.3130    -1.7590 hc         1 JI3       0.073200
     43 H81          4.1270    -0.7290    -6.0010 hc         1 JI3       0.045033
     44 H82          2.6330     0.2160    -5.9480 hc         1 JI3       0.045033
     45 H83          4.1770     1.0190    -6.2840 hc         1 JI3       0.045033
     46 HN8         -0.6780     4.5140     0.0640 hn         1 JI3       0.412000
     47 H91         -0.0960     3.8280    -2.7560 h1         1 JI3       0.037200
     48 H92         -1.7030     4.1010    -2.0620 h1         1 JI3       0.037200
     49 H101        -1.0370     6.4410    -1.4530 h1         1 JI3       0.037700
     50 H102         0.5730     6.1620    -2.1390 h1         1 JI3       0.037700
     51 HN11        -0.4510     5.7650    -4.2780 hn         1 JI3       0.412000
     52 H121         0.1350     8.0560    -3.8120 h1         1 JI3       0.039700
     53 H122        -1.5000     8.2990    -3.1790 h1         1 JI3       0.039700
     54 C8           3.6990     0.2310    -5.6910 c3         1 JI3      -0.052800
@<TRIPOS>BOND
     1     1     2 ar  
     2     1     7 ar  
     3     1    26 1   
     4     2     3 ar  
     5     2    27 1   
     6     3     4 1   
     7     3     5 ar  
     8     5     6 ar  
     9     5    28 1   
    10     6     7 ar  
    11     6    29 1   
    12     7    25 1   
    13     8     9 1   
    14     8    10 ar  
    15     8    14 ar  
    16     9    30 1   
    17     9    31 1   
    18    10    11 ar  
    19    10    32 1   
    20    11    12 ar  
    21    11    54 1   
    22    12    13 ar  
    23    12    33 1   
    24    13    14 ar  
    25    13    20 1   
    26    15    16 1   
    27    15    19 1   
    28    15    34 1   
    29    16    17 1   
    30    16    35 1   
    31    16    36 1   
    32    17    18 1   
    33    17    21 1   
    34    17    37 1   
    35    18    19 1   
    36    18    20 1   
    37    18    38 1   
    38    19    39 1   
    39    19    40 1   
    40    20    41 1   
    41    20    42 1   
    42    21    22 1   
    43    21    46 1   
    44    22    23 1   
    45    22    47 1   
    46    22    48 1   
    47    23    24 1   
    48    23    49 1   
    49    23    50 1   
    50    24    25 1   
    51    24    51 1   
    52    25    52 1   
    53    25    53 1   
    54    43    54 1   
    55    44    54 1   
    56    45    54 1   
@<TRIPOS>SUBSTRUCTURE
     1 JI3         1 TEMP              0 ****  ****    0 ROOT
