@<TRIPOS>MOLECULE
JI3
   54    56     1     0     0
SMALL
bcc


@<TRIPOS>ATOM
      1 C21         -0.7320     8.7080    -6.2430 ca         1 JI3      -0.108000
      2 C22         -1.2870     8.9870    -7.4860 ca         1 JI3      -0.125000
      3 C23         -2.4830     8.3840    -7.8360 ca         1 JI3       0.030400
      4 CL          -3.1880     8.7180    -9.3860 cl         1 JI3      -0.115400
      5 C24         -3.1260     7.5140    -6.9680 ca         1 JI3      -0.125000
      6 C25         -2.5570     7.2510    -5.7320 ca         1 JI3      -0.108000
      7 C26         -1.3570     7.8460    -5.3490 ca         1 JI3      -0.088300
      8 C6           4.7640    -0.1800    -2.1040 ca         1 JI3       0.659200
      9 N6           5.6300    -0.9630    -1.3910 nv         1 JI3      -0.940500
     10 C5           4.7300    -0.2400    -3.5060 ca         1 JI3      -0.317300
     11 C4           3.8800     0.6050    -4.1920 ca         1 JI3      -0.001300
     12 C3           3.0880     1.4860    -3.4510 ca         1 JI3      -0.306300
     13 C2           3.1750     1.4740    -2.0670 ca         1 JI3       0.464600
     14 N1           4.0000     0.6580    -1.4080 nb         1 JI3      -0.741000
     15 N2           0.8880     1.1240     1.1920 n7         1 JI3      -0.808200
     16 C15          0.3490     2.4840     1.1530 c5         1 JI3       0.154800
     17 C14         -0.0520     2.7330    -0.3030 c5         1 JI3       0.150500
     18 C13          0.8870     1.7910    -1.0720 c5         1 JI3      -0.059700
     19 C11          0.8500     0.5670    -0.1620 c5         1 JI3       0.156800
     20 C7           2.2970     2.3730    -1.2470 c3         1 JI3      -0.118700
     21 N8           0.0480     4.1260    -0.6710 n7         1 JI3      -0.804200
     22 C9          -0.4680     4.4120    -1.9950 c3         1 JI3       0.155800
     23 C10         -0.3370     5.8920    -2.3150 c3         1 JI3       0.153800
     24 N11         -0.8350     6.1740    -3.6460 n7         1 JI3      -0.811200
     25 C12         -0.7640     7.5790    -3.9910 c3         1 JI3       0.208100
     26 H21          0.2100     9.1720    -5.9750 ha         1 JI3       0.141500
     27 H22         -0.7870     9.6610    -8.1680 ha         1 JI3       0.147000
     28 H24         -4.0590     7.0460    -7.2510 ha         1 JI3       0.147000
     29 H25         -3.0540     6.5660    -5.0570 ha         1 JI3       0.141500
     30 HN61         5.9720    -1.7960    -1.8390 hn         1 JI3       0.410800
     31 HN62         5.4060    -1.0880    -0.4180 hn         1 JI3       0.410800
     32 H5           5.3650    -0.9410    -4.0360 ha         1 JI3       0.136000
     33 H3           2.4090     2.1690    -3.9480 ha         1 JI3       0.135000
     34 HN1          0.3760     0.5430     1.8370 hn         1 JI3       0.354800
     35 H2'1         1.1110     3.2160     1.4480 h1         1 JI3       0.047200
     36 H2'2        -0.4970     2.6100     1.8330 h1         1 JI3       0.047200
     37 H6          -1.0760     2.3480    -0.4540 h1         1 JI3       0.018700
     38 H4           0.4830     1.5440    -2.0580 hc         1 JI3       0.052700
     39 H5'1        -0.0680    -0.0020    -0.3580 h1         1 JI3       0.042200
     40 H5'2         1.6900    -0.1100    -0.3340 h1         1 JI3       0.042200
     41 H71          2.7600     2.5410    -0.2720 hc         1 JI3       0.073200
     42 H72          2.2180     3.3470    -1.7340 hc         1 JI3       0.073200
     43 H81          4.4770    -0.1510    -6.1200 hc         1 JI3       0.045033
     44 H82          2.7880     0.3490    -6.0200 hc         1 JI3       0.045033
     45 H83          4.0530     1.5610    -6.1040 hc         1 JI3       0.045033
     46 HN8         -0.4650     4.6800     0.0050 hn         1 JI3       0.356800
     47 H91          0.1140     3.8390    -2.7240 h1         1 JI3       0.037200
     48 H92         -1.5170     4.1050    -2.1240 h1         1 JI3       0.037200
     49 H101        -0.9300     6.4710    -1.5990 h1         1 JI3       0.037700
     50 H102         0.7110     6.1980    -2.1720 h1         1 JI3       0.037700
     51 HN11        -0.2940     5.6450    -4.3200 hn         1 JI3       0.356800
     52 H121         0.2580     7.9840    -3.9540 h1         1 JI3       0.039700
     53 H122        -1.3330     8.1380    -3.2400 h1         1 JI3       0.039700
     54 C8           3.8000     0.5850    -5.6880 c3         1 JI3      -0.052800
@<TRIPOS>BOND
     1     1     2 ar  
     2     1     7 ar  
     3     1    26 1   
     4     2     3 ar  
     5     2    27 1   
     6     3     4 1   
     7     3     5 ar  
     8     5     6 ar  
     9     5    28 1   
    10     6     7 ar  
    11     6    29 1   
    12     7    25 1   
    13     8     9 1   
    14     8    10 ar  
    15     8    14 ar  
    16     9    30 1   
    17     9    31 1   
    18    10    11 ar  
    19    10    32 1   
    20    11    12 ar  
    21    11    54 1   
    22    12    13 ar  
    23    12    33 1   
    24    13    14 ar  
    25    13    20 1   
    26    15    16 1   
    27    15    19 1   
    28    15    34 1   
    29    16    17 1   
    30    16    35 1   
    31    16    36 1   
    32    17    18 1   
    33    17    21 1   
    34    17    37 1   
    35    18    19 1   
    36    18    20 1   
    37    18    38 1   
    38    19    39 1   
    39    19    40 1   
    40    20    41 1   
    41    20    42 1   
    42    21    22 1   
    43    21    46 1   
    44    22    23 1   
    45    22    47 1   
    46    22    48 1   
    47    23    24 1   
    48    23    49 1   
    49    23    50 1   
    50    24    25 1   
    51    24    51 1   
    52    25    52 1   
    53    25    53 1   
    54    43    54 1   
    55    44    54 1   
    56    45    54 1   
@<TRIPOS>SUBSTRUCTURE
     1 JI3         1 TEMP              0 ****  ****    0 ROOT
