@<TRIPOS>MOLECULE
JI4
   57    59     1     0     0
SMALL
No Charge or Current Charge


@<TRIPOS>ATOM
      1 C1           0.4680     1.2160    -1.1820 c3         1 JI4       0.149800
      2 N1          -0.8810     0.9080    -0.6490 n7         1 JI4      -0.857400
      3 C2           1.5850     0.7230    -0.2220 c3         1 JI4       0.156800
      4 N2           2.9350     0.9980    -0.7680 n7         1 JI4      -0.864400
      5 C3           4.0560     0.5870     0.1020 c3         1 JI4       0.162800
      6 C4           5.4070     0.9470    -0.5470 c3         1 JI4      -0.038100
      7 N3          -3.3430     3.1030    -0.3030 n7         1 JI4      -0.862400
      8 C11          6.5860     0.5410     0.3280 ca         1 JI4      -0.052300
      9 C12          7.1880    -0.7220     0.1700 ca         1 JI4      -0.152000
     10 C13          8.2710    -1.0930     0.9830 ca         1 JI4       0.171000
     11 F13          8.8440    -2.3060     0.8250 f          1 JI4      -0.181000
     12 C14          8.7620    -0.2120     1.9580 ca         1 JI4      -0.152000
     13 C15          8.1640     1.0500     2.1230 ca         1 JI4      -0.083000
     14 C16          7.0790     1.4230     1.3100 ca         1 JI4      -0.123000
     15 N11         -4.9260    -1.3980     1.2420 nb         1 JI4      -0.750000
     16 C9          -2.2580     2.9140    -1.3180 c5         1 JI4       0.147800
     17 C21         -4.7650    -1.1980    -0.0860 ca         1 JI4       0.398300
     18 C10         -2.0350     1.3620    -1.4880 c5         1 JI4       0.165500
     19 C31         -5.8000    -1.4130    -1.0160 ca         1 JI4      -0.217000
     20 C17         -3.3660     0.8000    -0.8970 c5         1 JI4      -0.056700
     21 C41         -7.0560    -1.8510    -0.5660 ca         1 JI4       0.000700
     22 C5          -3.5690     1.7670     0.2990 c5         1 JI4       0.154800
     23 C51         -7.2100    -2.0560     0.8130 ca         1 JI4      -0.231000
     24 C61         -6.1180    -1.8090     1.6470 ca         1 JI4       0.596900
     25 N61         -6.1470    -1.9770     2.9700 nv         1 JI4      -1.051900
     26 C71         -3.3970    -0.7140    -0.5450 c3         1 JI4      -0.123700
     27 C81         -8.2000    -2.0990    -1.5350 c3         1 JI4      -0.053800
     28 H1           0.6030     0.7340    -2.1600 h1         1 JI4       0.036200
     29 H1A          0.5870     2.2980    -1.3280 h1         1 JI4       0.036200
     30 HN1         -0.9440    -0.1090    -0.5410 hn         1 JI4       0.404000
     31 H2           1.4600     1.2250     0.7480 h1         1 JI4       0.035700
     32 H2A          1.4590    -0.3560    -0.0550 h1         1 JI4       0.035700
     33 HN2          3.0260     0.5000    -1.6620 hn         1 JI4       0.403000
     34 H3           3.9860     1.0900     1.0760 h1         1 JI4       0.034200
     35 H3A          4.0240    -0.4960     0.2820 h1         1 JI4       0.034200
     36 H4           5.4790     0.4580    -1.5260 hc         1 JI4       0.056200
     37 H4A          5.4360     2.0270    -0.7390 hc         1 JI4       0.056200
     38 H6          -3.0410     3.7670     0.4220 hn         1 JI4       0.414000
     39 H12          6.8190    -1.4180    -0.5800 ha         1 JI4       0.129000
     40 H14          9.6000    -0.5070     2.5840 ha         1 JI4       0.131000
     41 H15          8.5400     1.7370     2.8790 ha         1 JI4       0.117000
     42 H16          6.6200     2.4010     1.4440 ha         1 JI4       0.119000
     43 H9          -2.5670     3.3610    -2.2730 h1         1 JI4       0.042700
     44 H2'A        -1.3370     3.4270    -1.0100 h1         1 JI4       0.042700
     45 H10         -1.8970     1.0660    -2.5380 h1         1 JI4       0.028700
     46 H31         -5.6230    -1.2400    -2.0740 ha         1 JI4       0.120000
     47 H11         -4.1690     0.9550    -1.6280 hc         1 JI4       0.057700
     48 H5          -2.8390     1.5670     1.0970 h1         1 JI4       0.049200
     49 H5'A        -4.5740     1.6850     0.7380 h1         1 JI4       0.049200
     50 H51         -8.1540    -2.3970     1.2270 ha         1 JI4       0.119000
     51 HN61        -5.2370    -1.9930     3.4140 hn         1 JI4       0.466500
     52 HN6A        -6.8500    -2.6010     3.3510 hn         1 JI4       0.466500
     53 H71         -2.6520    -0.9400     0.2260 hc         1 JI4       0.059700
     54 H71A        -3.0970    -1.2950    -1.4260 hc         1 JI4       0.059700
     55 H81         -8.1700    -3.1250    -1.9200 hc         1 JI4       0.046367
     56 H81A        -9.1730    -1.9500    -1.0520 hc         1 JI4       0.046367
     57 H81B        -8.1500    -1.4170    -2.3930 hc         1 JI4       0.046367
@<TRIPOS>BOND
     1     1     2 1   
     2     1     3 1   
     3     1    28 1   
     4     1    29 1   
     5     2    18 1   
     6     2    30 1   
     7     3     4 1   
     8     3    31 1   
     9     3    32 1   
    10     4     5 1   
    11     4    33 1   
    12     5     6 1   
    13     5    34 1   
    14     5    35 1   
    15     6     8 1   
    16     6    36 1   
    17     6    37 1   
    18     7    16 1   
    19     7    22 1   
    20     7    38 1   
    21     8     9 ar  
    22     8    14 ar  
    23     9    10 ar  
    24     9    39 1   
    25    10    11 1   
    26    10    12 ar  
    27    12    13 ar  
    28    12    40 1   
    29    13    14 ar  
    30    13    41 1   
    31    14    42 1   
    32    15    17 ar  
    33    15    24 ar  
    34    16    18 1   
    35    16    43 1   
    36    16    44 1   
    37    17    19 ar  
    38    17    26 1   
    39    18    20 1   
    40    18    45 1   
    41    19    21 ar  
    42    19    46 1   
    43    20    22 1   
    44    20    26 1   
    45    20    47 1   
    46    21    23 ar  
    47    21    27 1   
    48    22    48 1   
    49    22    49 1   
    50    23    24 ar  
    51    23    50 1   
    52    24    25 1   
    53    25    51 1   
    54    25    52 1   
    55    26    53 1   
    56    26    54 1   
    57    27    55 1   
    58    27    56 1   
    59    27    57 1   
@<TRIPOS>SUBSTRUCTURE
     1 JI4         1 TEMP              0 ****  ****    0 ROOT
