@<TRIPOS>MOLECULE
JI4
   57    59     1     0     0
SMALL
abcg2


@<TRIPOS>ATOM
      1 C1           0.4620     1.3370    -1.0050 c3         1 JI4       0.149800
      2 N1          -0.8200     0.8140    -0.5700 n7         1 JI4      -0.857400
      3 C2           1.5980     0.6530    -0.2640 c3         1 JI4       0.156800
      4 N2           2.8800     1.1710    -0.6980 n7         1 JI4      -0.864400
      5 C3           3.9990     0.5760     0.0030 c3         1 JI4       0.162800
      6 C4           5.3190     1.1830    -0.4680 c3         1 JI4      -0.038100
      7 N3          -3.5000     3.1130    -0.6540 n7         1 JI4      -0.862400
      8 C11          6.4910     0.5660     0.2390 ca         1 JI4      -0.052300
      9 C12          7.0860    -0.5880    -0.2640 ca         1 JI4      -0.152000
     10 C13          8.1360    -1.1640     0.4230 ca         1 JI4       0.171000
     11 F13          8.7030    -2.2740    -0.0810 f          1 JI4      -0.181000
     12 C14          8.6270    -0.6410     1.6040 ca         1 JI4      -0.152000
     13 C15          8.0300     0.5080     2.1030 ca         1 JI4      -0.083000
     14 C16          6.9730     1.1070     1.4300 ca         1 JI4      -0.123000
     15 N11         -5.0960    -0.8150     1.3240 nb         1 JI4      -0.750000
     16 C9          -2.0740     2.9150    -0.8520 c5         1 JI4       0.147800
     17 C21         -4.6400    -1.0790     0.0980 ca         1 JI4       0.398300
     18 C10         -1.9400     1.4340    -1.2600 c5         1 JI4       0.165500
     19 C31         -5.3860    -1.7640    -0.8450 ca         1 JI4      -0.217000
     20 C17         -3.3160     0.8190    -0.8760 c5         1 JI4      -0.056700
     21 C41         -6.6700    -2.2050    -0.5090 ca         1 JI4       0.000700
     22 C5          -3.9590     1.8980    -0.0080 c5         1 JI4       0.154800
     23 C51         -7.1430    -1.9230     0.7570 ca         1 JI4      -0.231000
     24 C61         -6.3210    -1.2180     1.6510 ca         1 JI4       0.596900
     25 N61         -6.7710    -0.8790     2.8960 nv         1 JI4      -1.051900
     26 C71         -3.2670    -0.5660    -0.2330 c3         1 JI4      -0.123700
     27 C81         -7.4940    -2.9720    -1.4980 c3         1 JI4      -0.053800
     28 H1           0.6080     1.2280    -2.0930 h1         1 JI4       0.036200
     29 H1A          0.5060     2.4090    -0.7960 h1         1 JI4       0.036200
     30 HN1         -0.8250    -0.1790    -0.7730 hn         1 JI4       0.404000
     31 H2           1.4900     0.8450     0.8080 h1         1 JI4       0.035700
     32 H2A          1.5150    -0.4390    -0.3930 h1         1 JI4       0.035700
     33 HN2          2.9860     0.9910    -1.6900 hn         1 JI4       0.403000
     34 H3           3.8790     0.7650     1.0740 h1         1 JI4       0.034200
     35 H3A          4.0420    -0.5190    -0.1140 h1         1 JI4       0.034200
     36 H4           5.4160     1.0360    -1.5470 hc         1 JI4       0.056200
     37 H4A          5.2970     2.2610    -0.2930 hc         1 JI4       0.056200
     38 H6          -3.6820     3.9330    -0.0900 hn         1 JI4       0.414000
     39 H12          6.7360    -1.0330    -1.1880 ha         1 JI4       0.129000
     40 H14          9.4530    -1.1160     2.1170 ha         1 JI4       0.131000
     41 H15          8.3970     0.9410     3.0250 ha         1 JI4       0.117000
     42 H16          6.5190     2.0050     1.8310 ha         1 JI4       0.119000
     43 H9          -1.6810     3.6010    -1.6060 h1         1 JI4       0.042700
     44 H2'A        -1.4960     3.0720     0.0710 h1         1 JI4       0.042700
     45 H10         -1.8120     1.3610    -2.3510 h1         1 JI4       0.028700
     46 H31         -4.9740    -1.9650    -1.8270 ha         1 JI4       0.120000
     47 H11         -3.9030     0.7430    -1.7960 hc         1 JI4       0.057700
     48 H5          -3.6150     1.7960     1.0340 h1         1 JI4       0.049200
     49 H5'A        -5.0490     1.8400     0.0010 h1         1 JI4       0.049200
     50 H51         -8.1310    -2.2470     1.0650 ha         1 JI4       0.119000
     51 HN61        -6.0620    -0.6410     3.5700 hn         1 JI4       0.466500
     52 HN6A        -7.5280    -1.4230     3.2760 hn         1 JI4       0.466500
     53 H71         -2.6710    -0.5340     0.6810 hc         1 JI4       0.059700
     54 H71A        -2.7800    -1.2660    -0.9170 hc         1 JI4       0.059700
     55 H81         -6.9970    -3.9050    -1.7710 hc         1 JI4       0.046367
     56 H81A        -8.4780    -3.2170    -1.1030 hc         1 JI4       0.046367
     57 H81B        -7.6280    -2.4030    -2.4180 hc         1 JI4       0.046367
@<TRIPOS>BOND
     1     1     2 1   
     2     1     3 1   
     3     1    28 1   
     4     1    29 1   
     5     2    18 1   
     6     2    30 1   
     7     3     4 1   
     8     3    31 1   
     9     3    32 1   
    10     4     5 1   
    11     4    33 1   
    12     5     6 1   
    13     5    34 1   
    14     5    35 1   
    15     6     8 1   
    16     6    36 1   
    17     6    37 1   
    18     7    16 1   
    19     7    22 1   
    20     7    38 1   
    21     8     9 ar  
    22     8    14 ar  
    23     9    10 ar  
    24     9    39 1   
    25    10    11 1   
    26    10    12 ar  
    27    12    13 ar  
    28    12    40 1   
    29    13    14 ar  
    30    13    41 1   
    31    14    42 1   
    32    15    17 ar  
    33    15    24 ar  
    34    16    18 1   
    35    16    43 1   
    36    16    44 1   
    37    17    19 ar  
    38    17    26 1   
    39    18    20 1   
    40    18    45 1   
    41    19    21 ar  
    42    19    46 1   
    43    20    22 1   
    44    20    26 1   
    45    20    47 1   
    46    21    23 ar  
    47    21    27 1   
    48    22    48 1   
    49    22    49 1   
    50    23    24 ar  
    51    23    50 1   
    52    24    25 1   
    53    25    51 1   
    54    25    52 1   
    55    26    53 1   
    56    26    54 1   
    57    27    55 1   
    58    27    56 1   
    59    27    57 1   
@<TRIPOS>SUBSTRUCTURE
     1 JI4         1 TEMP              0 ****  ****    0 ROOT
