@<TRIPOS>MOLECULE
JI5
   57    59     1     0     0
SMALL
No Charge or Current Charge


@<TRIPOS>ATOM
      1 C1           0.4000    -1.6570    -0.7750 c3         1 JI5       0.160800
      2 N1          -0.9360    -1.1920    -0.3380 n7         1 JI5      -0.859400
      3 C2           1.5260    -0.7160    -0.2650 c3         1 JI5       0.156800
      4 N2           2.8690    -1.1910    -0.6760 n7         1 JI5      -0.864400
      5 C3           3.9920    -0.3310    -0.2530 c3         1 JI5       0.162800
      6 C4           5.3330    -0.9000    -0.7580 c3         1 JI5      -0.038100
      7 N3          -2.5750    -2.6680     1.5000 n7         1 JI5      -0.822400
      8 C11          6.5140    -0.0320    -0.3430 ca         1 JI5      -0.052300
      9 N11         -5.9870     0.5220    -1.3050 nb         1 JI5      -0.754000
     10 C12          7.2030    -0.2940     0.8570 ca         1 JI5      -0.151000
     11 C13          8.2870     0.5130     1.2370 ca         1 JI5       0.171000
     12 F13          8.9430     0.2550     2.3900 f          1 JI5      -0.182000
     13 C14          8.6930     1.5850     0.4290 ca         1 JI5      -0.153000
     14 C15          8.0090     1.8540    -0.7690 ca         1 JI5      -0.083000
     15 C16          6.9220     1.0470    -1.1520 ca         1 JI5      -0.123000
     16 C9          -2.2110    -3.2570     0.1790 c5         1 JI5       0.097800
     17 C21         -4.9430     0.7640    -0.4810 ca         1 JI5       0.396300
     18 C10         -2.0970    -2.0220    -0.7680 c5         1 JI5       0.140500
     19 C31         -5.0620     1.5400     0.6890 ca         1 JI5      -0.218000
     20 C17         -3.4170    -1.3070    -0.3530 c5         1 JI5      -0.087700
     21 C41         -6.3080     2.0900     1.0300 ca         1 JI5       0.001700
     22 C5          -3.4150    -1.4700     1.2040 c5         1 JI5       0.128800
     23 C51         -7.3840     1.8330     0.1670 ca         1 JI5      -0.233000
     24 C61         -7.1530     1.0490    -0.9640 ca         1 JI5       0.601900
     25 N61         -8.0970     0.7470    -1.8570 nv         1 JI5      -1.057900
     26 C71         -3.6080     0.1460    -0.8730 c3         1 JI5      -0.110700
     27 C81         -6.4810     2.9360     2.2810 c3         1 JI5      -0.053800
     28 H1           0.5930    -2.6710    -0.3990 h1         1 JI5       0.035700
     29 H1A          0.4460    -1.6960    -1.8720 h1         1 JI5       0.035700
     30 HN1         -0.9620    -1.2120     0.6890 hn         1 JI5       0.408000
     31 H2           1.3450     0.2930    -0.6600 h1         1 JI5       0.037200
     32 H2A          1.4670    -0.6560     0.8310 h1         1 JI5       0.037200
     33 HN2          3.0140    -2.1260    -0.2750 hn         1 JI5       0.403000
     34 H3           3.8660     0.6850    -0.6520 h1         1 JI5       0.034700
     35 H3A          4.0270    -0.2570     0.8430 h1         1 JI5       0.034700
     36 H4           5.4610    -1.9190    -0.3730 hc         1 JI5       0.056700
     37 H4A          5.2970    -0.9860    -1.8510 hc         1 JI5       0.056700
     38 H6          -3.0950    -3.3510     2.0660 hn         1 JI5       0.400000
     39 H12          6.9000    -1.1200     1.4960 ha         1 JI5       0.129000
     40 H14          9.5330     2.2050     0.7310 ha         1 JI5       0.131000
     41 H15          8.3180     2.6850    -1.3990 ha         1 JI5       0.117000
     42 H16          6.3960     1.2620    -2.0800 ha         1 JI5       0.119000
     43 H9          -1.2850    -3.8460     0.2320 h1         1 JI5       0.052200
     44 H2'A        -3.0070    -3.9290    -0.1730 h1         1 JI5       0.052200
     45 H10         -2.0630    -2.2800    -1.8360 h1         1 JI5       0.060700
     46 H31         -4.1950     1.7090     1.3200 ha         1 JI5       0.120000
     47 H11         -4.2600    -1.8750    -0.7650 hc         1 JI5       0.073700
     48 H5          -4.4380    -1.5870     1.5900 h1         1 JI5       0.057700
     49 H5'A        -2.9830    -0.5850     1.6930 h1         1 JI5       0.057700
     50 H51         -8.3730     2.2310     0.3710 ha         1 JI5       0.118000
     51 HN61        -7.7450     0.3820    -2.7340 hn         1 JI5       0.469500
     52 HN6A        -8.9060     1.3560    -1.9110 hn         1 JI5       0.469500
     53 H71         -3.5070     0.1550    -1.9650 hc         1 JI5       0.060200
     54 H71A        -2.7980     0.7850    -0.5020 hc         1 JI5       0.060200
     55 H81         -6.2560     3.9880     2.0750 hc         1 JI5       0.046367
     56 H81A        -7.5080     2.8810     2.6620 hc         1 JI5       0.046367
     57 H81B        -5.8140     2.6000     3.0840 hc         1 JI5       0.046367
@<TRIPOS>BOND
     1     1     2 1   
     2     1     3 1   
     3     1    28 1   
     4     1    29 1   
     5     2    18 1   
     6     2    30 1   
     7     3     4 1   
     8     3    31 1   
     9     3    32 1   
    10     4     5 1   
    11     4    33 1   
    12     5     6 1   
    13     5    34 1   
    14     5    35 1   
    15     6     8 1   
    16     6    36 1   
    17     6    37 1   
    18     7    16 1   
    19     7    22 1   
    20     7    38 1   
    21     8    10 ar  
    22     8    15 ar  
    23     9    17 ar  
    24     9    24 ar  
    25    10    11 ar  
    26    10    39 1   
    27    11    12 1   
    28    11    13 ar  
    29    13    14 ar  
    30    13    40 1   
    31    14    15 ar  
    32    14    41 1   
    33    15    42 1   
    34    16    18 1   
    35    16    43 1   
    36    16    44 1   
    37    17    19 ar  
    38    17    26 1   
    39    18    20 1   
    40    18    45 1   
    41    19    21 ar  
    42    19    46 1   
    43    20    22 1   
    44    20    26 1   
    45    20    47 1   
    46    21    23 ar  
    47    21    27 1   
    48    22    48 1   
    49    22    49 1   
    50    23    24 ar  
    51    23    50 1   
    52    24    25 1   
    53    25    51 1   
    54    25    52 1   
    55    26    53 1   
    56    26    54 1   
    57    27    55 1   
    58    27    56 1   
    59    27    57 1   
@<TRIPOS>SUBSTRUCTURE
     1 JI5         1 TEMP              0 ****  ****    0 ROOT
