@<TRIPOS>MOLECULE
JI5
   57    59     1     0     0
SMALL
abcg2


@<TRIPOS>ATOM
      1 C1           0.4790    -1.7490    -0.2420 c3         1 JI5       0.160800
      2 N1          -0.8050    -1.1120    -0.0170 n7         1 JI5      -0.859400
      3 C2           1.5990    -0.7240    -0.1460 c3         1 JI5       0.156800
      4 N2           2.8920    -1.3450    -0.3520 n7         1 JI5      -0.864400
      5 C3           3.9830    -0.3940    -0.3110 c3         1 JI5       0.162800
      6 C4           5.3230    -1.0830    -0.5590 c3         1 JI5      -0.038100
      7 N3          -3.5940    -3.4330     0.6150 n7         1 JI5      -0.822400
      8 C11          6.4550    -0.0960    -0.5370 ca         1 JI5      -0.052300
      9 N11         -5.1360     1.0740    -1.0520 nb         1 JI5      -0.754000
     10 C12          7.1280     0.1790     0.6510 ca         1 JI5      -0.151000
     11 C13          8.1340     1.1260     0.6550 ca         1 JI5       0.171000
     12 F13          8.7780     1.3760     1.8090 f          1 JI5      -0.182000
     13 C14          8.5060     1.8210    -0.4790 ca         1 JI5      -0.153000
     14 C15          7.8310     1.5440    -1.6610 ca         1 JI5      -0.083000
     15 C16          6.8170     0.5960    -1.6920 ca         1 JI5      -0.123000
     16 C9          -2.1630    -3.1790     0.5720 c5         1 JI5       0.097800
     17 C21         -4.6070     0.8940     0.1610 ca         1 JI5       0.396300
     18 C10         -1.9440    -1.9450    -0.3340 c5         1 JI5       0.140500
     19 C31         -5.2600     1.2650     1.3220 ca         1 JI5      -0.218000
     20 C17         -3.3140    -1.2050    -0.2770 c5         1 JI5      -0.087700
     21 C41         -6.5280     1.8530     1.2340 ca         1 JI5       0.001700
     22 C5          -4.1810    -2.1000     0.6280 c5         1 JI5       0.128800
     23 C51         -7.0750     2.0300    -0.0190 ca         1 JI5      -0.233000
     24 C61         -6.3420     1.6220    -1.1480 ca         1 JI5       0.601900
     25 N61         -6.8740     1.7400    -2.4000 nv         1 JI5      -1.057900
     26 C71         -3.2530     0.2430     0.2040 c3         1 JI5      -0.110700
     27 C81         -7.2530     2.2850     2.4720 c3         1 JI5      -0.053800
     28 H1           0.6840    -2.5780     0.4540 h1         1 JI5       0.035700
     29 H1A          0.4800    -2.1830    -1.2450 h1         1 JI5       0.035700
     30 HN1         -0.8590    -0.8130     0.9510 hn         1 JI5       0.408000
     31 H2           1.4480     0.0320    -0.9220 h1         1 JI5       0.037200
     32 H2A          1.5320    -0.1950     0.8200 h1         1 JI5       0.037200
     33 HN2          3.0390    -2.0410     0.3710 hn         1 JI5       0.403000
     34 H3           3.8180     0.3540    -1.0920 h1         1 JI5       0.034700
     35 H3A          4.0320     0.1600     0.6400 h1         1 JI5       0.034700
     36 H4           5.4830    -1.8490     0.2050 hc         1 JI5       0.056700
     37 H4A          5.2880    -1.5940    -1.5240 hc         1 JI5       0.056700
     38 H6          -3.8680    -3.9010    -0.2410 hn         1 JI5       0.400000
     39 H12          6.8730    -0.3440     1.5650 ha         1 JI5       0.129000
     40 H14          9.3000     2.5540    -0.4430 ha         1 JI5       0.131000
     41 H15          8.1020     2.0740    -2.5640 ha         1 JI5       0.117000
     42 H16          6.3040     0.3900    -2.6230 ha         1 JI5       0.119000
     43 H9          -1.8100    -2.9450     1.5850 h1         1 JI5       0.052200
     44 H2'A        -1.6180    -4.0630     0.2370 h1         1 JI5       0.052200
     45 H10         -1.7920    -2.2950    -1.3600 h1         1 JI5       0.060700
     46 H31         -4.7930     1.1000     2.2860 ha         1 JI5       0.120000
     47 H11         -3.7430    -1.1960    -1.2820 hc         1 JI5       0.073700
     48 H5          -5.2280    -2.1330     0.3240 h1         1 JI5       0.057700
     49 H5'A        -4.1570    -1.7170     1.6550 h1         1 JI5       0.057700
     50 H51         -8.0540     2.4780    -0.1410 ha         1 JI5       0.118000
     51 HN61        -6.2240     1.6880    -3.1670 hn         1 JI5       0.469500
     52 HN6A        -7.6170     2.4050    -2.5320 hn         1 JI5       0.469500
     53 H71         -2.5580     0.8070    -0.4220 hc         1 JI5       0.060200
     54 H71A        -2.8710     0.2840     1.2280 hc         1 JI5       0.060200
     55 H81         -6.7440     3.1300     2.9390 hc         1 JI5       0.046367
     56 H81A        -8.2770     2.5880     2.2580 hc         1 JI5       0.046367
     57 H81B        -7.2820     1.4840     3.2110 hc         1 JI5       0.046367
@<TRIPOS>BOND
     1     1     2 1   
     2     1     3 1   
     3     1    28 1   
     4     1    29 1   
     5     2    18 1   
     6     2    30 1   
     7     3     4 1   
     8     3    31 1   
     9     3    32 1   
    10     4     5 1   
    11     4    33 1   
    12     5     6 1   
    13     5    34 1   
    14     5    35 1   
    15     6     8 1   
    16     6    36 1   
    17     6    37 1   
    18     7    16 1   
    19     7    22 1   
    20     7    38 1   
    21     8    10 ar  
    22     8    15 ar  
    23     9    17 ar  
    24     9    24 ar  
    25    10    11 ar  
    26    10    39 1   
    27    11    12 1   
    28    11    13 ar  
    29    13    14 ar  
    30    13    40 1   
    31    14    15 ar  
    32    14    41 1   
    33    15    42 1   
    34    16    18 1   
    35    16    43 1   
    36    16    44 1   
    37    17    19 ar  
    38    17    26 1   
    39    18    20 1   
    40    18    45 1   
    41    19    21 ar  
    42    19    46 1   
    43    20    22 1   
    44    20    26 1   
    45    20    47 1   
    46    21    23 ar  
    47    21    27 1   
    48    22    48 1   
    49    22    49 1   
    50    23    24 ar  
    51    23    50 1   
    52    24    25 1   
    53    25    51 1   
    54    25    52 1   
    55    26    53 1   
    56    26    54 1   
    57    27    55 1   
    58    27    56 1   
    59    27    57 1   
@<TRIPOS>SUBSTRUCTURE
     1 JI5         1 TEMP              0 ****  ****    0 ROOT
