@<TRIPOS>MOLECULE
JI7
   54    56     1     0     0
SMALL
No Charge or Current Charge


@<TRIPOS>ATOM
      1 C5           7.7530     1.1200     0.0400 ca         1 JI7      -0.231000
      2 C4           6.7980     1.6850    -0.8170 ca         1 JI7       0.002700
      3 C3           5.4490     1.3870    -0.5640 ca         1 JI7      -0.215000
      4 C2           5.1140     0.5530     0.5200 ca         1 JI7       0.397300
      5 N1           6.0430     0.0140     1.3400 nb         1 JI7      -0.752000
      6 C6           7.3090     0.3090     1.0860 ca         1 JI7       0.598900
      7 C7           3.6600     0.2030     0.8090 c3         1 JI7      -0.122700
      8 C13          3.0540    -0.8110    -0.1990 c5         1 JI7      -0.091700
      9 C14          1.6160    -1.2840     0.1230 c5         1 JI7       0.139500
     10 C15          1.4880    -2.4360    -0.9240 c5         1 JI7       0.143800
     11 N2           2.8220    -3.1130    -0.9360 n7         1 JI7      -0.842400
     12 C11          3.7590    -2.1960    -0.2240 c5         1 JI7       0.148800
     13 N8           0.6670    -0.1790    -0.1840 n7         1 JI7      -0.857400
     14 C9          -0.7630    -0.4630     0.0860 c3         1 JI7       0.156800
     15 C10         -1.6660     0.7450    -0.2890 c3         1 JI7       0.158800
     16 N11         -3.0920     0.4740     0.0060 n7         1 JI7      -0.867400
     17 C12         -4.0210     1.5600    -0.3500 c3         1 JI7       0.208100
     18 C26         -5.4480     1.1820     0.0230 ca         1 JI7      -0.079300
     19 C25         -6.0630     1.7380     1.1640 ca         1 JI7      -0.110000
     20 C24         -7.3820     1.3880     1.5030 ca         1 JI7      -0.104000
     21 C23         -8.0950     0.4780     0.7030 ca         1 JI7      -0.103000
     22 C22         -7.4870    -0.0800    -0.4340 ca         1 JI7       0.118000
     23 C21         -6.1690     0.2700    -0.7740 ca         1 JI7      -0.084000
     24 Cl          -8.3770    -1.2200    -1.4340 cl         1 JI7      -0.209000
     25 C8           7.2050     2.5760    -1.9790 c3         1 JI7      -0.053800
     26 N6           8.1270    -0.2870     1.9570 nv         1 JI7      -1.053900
     27 H5           8.8130     1.3070    -0.1010 ha         1 JI7       0.120000
     28 H3           4.6660     1.7930    -1.1980 ha         1 JI7       0.122000
     29 H71          3.5640    -0.1930     1.8270 hc         1 JI7       0.055200
     30 H72          3.0700     1.1260     0.7980 hc         1 JI7       0.055200
     31 H4           3.1010    -0.3500    -1.1940 hc         1 JI7       0.072700
     32 H6           1.5200    -1.6420     1.1580 h1         1 JI7       0.020700
     33 H2'1         0.6740    -3.1320    -0.6780 h1         1 JI7       0.061200
     34 H2'2         1.2770    -2.0210    -1.9200 h1         1 JI7       0.061200
     35 HN1          2.7690    -3.9950    -0.4110 hn         1 JI7       0.399000
     36 H5'1         4.7400    -2.1540    -0.7180 h1         1 JI7       0.054200
     37 H5'2         3.9260    -2.5540     0.8030 h1         1 JI7       0.054200
     38 HN8          0.9330     0.6410     0.3740 hn         1 JI7       0.408000
     39 H91         -1.0950    -1.3370    -0.4910 h1         1 JI7       0.037700
     40 H92         -0.9060    -0.6950     1.1510 h1         1 JI7       0.037700
     41 H101        -1.3260     1.6280     0.2710 h1         1 JI7       0.036200
     42 H102        -1.5350     0.9610    -1.3580 h1         1 JI7       0.036200
     43 HN11        -3.1860     0.3030     1.0140 hn         1 JI7       0.411000
     44 H121        -3.7450     2.4880     0.1700 h1         1 JI7       0.039700
     45 H122        -3.9770     1.7660    -1.4280 h1         1 JI7       0.039700
     46 H25         -5.5180     2.4430     1.7890 ha         1 JI7       0.113000
     47 H24         -7.8510     1.8200     2.3840 ha         1 JI7       0.117000
     48 H23         -9.1150     0.2050     0.9620 ha         1 JI7       0.129000
     49 H21         -5.7050    -0.1700    -1.6530 ha         1 JI7       0.147000
     50 H81          7.3400     1.9860    -2.8930 hc         1 JI7       0.047367
     51 H82          6.4440     3.3390    -2.1800 hc         1 JI7       0.047367
     52 H83          8.1480     3.0960    -1.7720 hc         1 JI7       0.047367
     53 HN61         7.6970    -1.0210     2.5050 hn         1 JI7       0.468000
     54 HN62         9.0890    -0.4330     1.6750 hn         1 JI7       0.468000
@<TRIPOS>BOND
     1     1     2 ar  
     2     1     6 ar  
     3     1    27 1   
     4     2     3 ar  
     5     2    25 1   
     6     3     4 ar  
     7     3    28 1   
     8     4     5 ar  
     9     4     7 1   
    10     5     6 ar  
    11     6    26 1   
    12     7     8 1   
    13     7    29 1   
    14     7    30 1   
    15     8     9 1   
    16     8    12 1   
    17     8    31 1   
    18     9    10 1   
    19     9    13 1   
    20     9    32 1   
    21    10    11 1   
    22    10    33 1   
    23    10    34 1   
    24    11    12 1   
    25    11    35 1   
    26    12    36 1   
    27    12    37 1   
    28    13    14 1   
    29    13    38 1   
    30    14    15 1   
    31    14    39 1   
    32    14    40 1   
    33    15    16 1   
    34    15    41 1   
    35    15    42 1   
    36    16    17 1   
    37    16    43 1   
    38    17    18 1   
    39    17    44 1   
    40    17    45 1   
    41    18    19 ar  
    42    18    23 ar  
    43    19    20 ar  
    44    19    46 1   
    45    20    21 ar  
    46    20    47 1   
    47    21    22 ar  
    48    21    48 1   
    49    22    23 ar  
    50    22    24 1   
    51    23    49 1   
    52    25    50 1   
    53    25    51 1   
    54    25    52 1   
    55    26    53 1   
    56    26    54 1   
@<TRIPOS>SUBSTRUCTURE
     1 JI7         1 TEMP              0 ****  ****    0 ROOT
