@<TRIPOS>MOLECULE
JI7
   54    56     1     0     0
SMALL
bcc


@<TRIPOS>ATOM
      1 C5           7.6670     0.9800    -0.0250 ca         1 JI7      -0.314300
      2 C4           6.6800     1.7540    -0.6050 ca         1 JI7       0.002700
      3 C3           5.3500     1.4760    -0.2810 ca         1 JI7      -0.298300
      4 C2           5.0720     0.4350     0.5900 ca         1 JI7       0.462600
      5 N1           6.0250    -0.3100     1.1510 nb         1 JI7      -0.752000
      6 C6           7.2960    -0.0460     0.8590 ca         1 JI7       0.664200
      7 C7           3.6490     0.0630     0.9040 c3         1 JI7      -0.122700
      8 C13          3.0220    -0.7700    -0.2120 c5         1 JI7      -0.091700
      9 C14          1.5670    -1.1740     0.0260 c5         1 JI7       0.139500
     10 C15          1.4350    -2.3450    -0.9490 c5         1 JI7       0.143800
     11 N2           2.6910    -3.0790    -0.8550 n7         1 JI7      -0.787200
     12 C11          3.7290    -2.1140    -0.4630 c5         1 JI7       0.148800
     13 N8           0.6450    -0.0900    -0.2350 n7         1 JI7      -0.802200
     14 C9          -0.7290    -0.4010     0.1100 c3         1 JI7       0.156800
     15 C10         -1.6330     0.7820    -0.1930 c3         1 JI7       0.158800
     16 N11         -3.0060     0.4770     0.1560 n7         1 JI7      -0.812200
     17 C12         -3.9240     1.5460    -0.1690 c3         1 JI7       0.208100
     18 C26         -5.3610     1.1660     0.0800 ca         1 JI7      -0.079300
     19 C25         -6.3060     2.1460     0.3730 ca         1 JI7      -0.128000
     20 C24         -7.6390     1.8110     0.5570 ca         1 JI7      -0.122000
     21 C23         -8.0560     0.4900     0.4630 ca         1 JI7      -0.121000
     22 C22         -7.1070    -0.4780     0.1790 ca         1 JI7       0.026400
     23 C21         -5.7720    -0.1600    -0.0140 ca         1 JI7      -0.102000
     24 CL          -7.6020    -2.1400     0.0630 cl         1 JI7      -0.117400
     25 C8           7.0170     2.8550    -1.5640 c3         1 JI7      -0.053800
     26 N6           8.2450    -0.7930     1.4980 nv         1 JI7      -0.943500
     27 H5           8.7130     1.1600    -0.2410 ha         1 JI7       0.138000
     28 H3           4.5430     2.0600    -0.7080 ha         1 JI7       0.140000
     29 H71          3.6230    -0.5010     1.8390 hc         1 JI7       0.055200
     30 H72          3.0640     0.9750     1.0560 hc         1 JI7       0.055200
     31 H4           3.0340    -0.1780    -1.1350 hc         1 JI7       0.072700
     32 H6           1.4660    -1.5670     1.0550 h1         1 JI7       0.020700
     33 H2'1         0.5940    -3.0080    -0.7420 h1         1 JI7       0.061200
     34 H2'2         1.2930    -1.9420    -1.9590 h1         1 JI7       0.061200
     35 HN1          2.6020    -3.7760    -0.1290 hn         1 JI7       0.343800
     36 H5'1         4.4900    -2.0080    -1.2410 h1         1 JI7       0.054200
     37 H5'2         4.2480    -2.4560     0.4360 h1         1 JI7       0.054200
     38 HN8          0.9320     0.7220     0.3000 hn         1 JI7       0.352800
     39 H91         -1.0630    -1.2560    -0.4820 h1         1 JI7       0.037700
     40 H92         -0.8430    -0.6920     1.1680 h1         1 JI7       0.037700
     41 H101        -1.2520     1.6770     0.3250 h1         1 JI7       0.036200
     42 H102        -1.5860     1.0010    -1.2630 h1         1 JI7       0.036200
     43 HN11        -3.0630     0.2830     1.1500 hn         1 JI7       0.355800
     44 H121        -3.7030     2.4850     0.3610 h1         1 JI7       0.039700
     45 H122        -3.8070     1.7750    -1.2340 h1         1 JI7       0.039700
     46 H25         -5.9970     3.1810     0.4600 ha         1 JI7       0.131000
     47 H24         -8.3650     2.5820     0.7840 ha         1 JI7       0.135000
     48 H23         -9.0930     0.2240     0.6130 ha         1 JI7       0.147000
     49 H21         -5.0480    -0.9340    -0.2300 ha         1 JI7       0.165000
     50 H81          6.6570     2.6150    -2.5660 hc         1 JI7       0.047367
     51 H82          6.5390     3.7890    -1.2680 hc         1 JI7       0.047367
     52 H83          8.0900     3.0260    -1.6240 hc         1 JI7       0.047367
     53 HN61         7.9320    -1.6690     1.8850 hn         1 JI7       0.412800
     54 HN62         9.1600    -0.8340     1.0820 hn         1 JI7       0.412800
@<TRIPOS>BOND
     1     1     2 ar  
     2     1     6 ar  
     3     1    27 1   
     4     2     3 ar  
     5     2    25 1   
     6     3     4 ar  
     7     3    28 1   
     8     4     5 ar  
     9     4     7 1   
    10     5     6 ar  
    11     6    26 1   
    12     7     8 1   
    13     7    29 1   
    14     7    30 1   
    15     8     9 1   
    16     8    12 1   
    17     8    31 1   
    18     9    10 1   
    19     9    13 1   
    20     9    32 1   
    21    10    11 1   
    22    10    33 1   
    23    10    34 1   
    24    11    12 1   
    25    11    35 1   
    26    12    36 1   
    27    12    37 1   
    28    13    14 1   
    29    13    38 1   
    30    14    15 1   
    31    14    39 1   
    32    14    40 1   
    33    15    16 1   
    34    15    41 1   
    35    15    42 1   
    36    16    17 1   
    37    16    43 1   
    38    17    18 1   
    39    17    44 1   
    40    17    45 1   
    41    18    19 ar  
    42    18    23 ar  
    43    19    20 ar  
    44    19    46 1   
    45    20    21 ar  
    46    20    47 1   
    47    21    22 ar  
    48    21    48 1   
    49    22    23 ar  
    50    22    24 1   
    51    23    49 1   
    52    25    50 1   
    53    25    51 1   
    54    25    52 1   
    55    26    53 1   
    56    26    54 1   
@<TRIPOS>SUBSTRUCTURE
     1 JI7         1 TEMP              0 ****  ****    0 ROOT
