@<TRIPOS>MOLECULE
JI9
   59    61     1     0     0
SMALL
No Charge or Current Charge


@<TRIPOS>ATOM
      1 C10         23.4590     2.1610    21.5460 ca         1 JI9      -0.068500
      2 C13         20.0810     5.5630    25.4570 c          1 JI9       0.581100
      3 C15         19.0330     7.0290    27.2150 c3         1 JI9       0.158300
      4 C17         17.9770     8.6610    25.5810 ca         1 JI9      -0.091000
      5 C21         15.4110     8.1820    26.6560 ca         1 JI9      -0.108300
      6 C22         14.0260     7.9210    27.2370 c3         1 JI9      -0.043800
      7 C26         20.9980     1.7300    25.3570 ca         1 JI9      -0.252300
      8 C28         20.0220    -0.4340    24.8000 ca         1 JI9      -0.218000
      9 C02         20.3050     3.3720    22.4800 c          1 JI9       0.606100
     10 C03         21.2360     3.3770    21.2630 c3         1 JI9      -0.116100
     11 C04         22.0850     2.1100    21.2280 ca         1 JI9      -0.070300
     12 C05         21.5000     0.8750    20.8800 ca         1 JI9      -0.068500
     13 C06         22.2800    -0.2950    20.8490 ca         1 JI9      -0.155500
     14 C07         23.6450    -0.2330    21.1630 ca         1 JI9       0.157000
     15 C09         24.2370     0.9910    21.5120 ca         1 JI9      -0.155500
     16 C12         20.1200     4.1120    24.9000 c3         1 JI9       0.039700
     17 C16         17.8220     7.7540    26.6470 ca         1 JI9      -0.099300
     18 C18         16.8580     9.3270    25.0540 ca         1 JI9      -0.159000
     19 C19         15.5830     9.0880    25.5900 ca         1 JI9       0.151000
     20 C23         16.5390     7.5170    27.1800 ca         1 JI9      -0.062000
     21 C25         20.8420     3.1550    25.8870 c3         1 JI9       0.001900
     22 C27         19.8840     0.8740    25.2930 ca         1 JI9      -0.078000
     23 C29         21.2820    -0.9020    24.3680 ca         1 JI9       0.330100
     24 C35         22.3910    -0.0430    24.4390 ca         1 JI9      -0.218000
     25 C36         22.2550     1.2660    24.9260 ca         1 JI9      -0.078000
     26 F08         24.3940    -1.3560    21.1330 f          1 JI9      -0.194000
     27 F20         14.5170     9.7380    25.0700 f          1 JI9      -0.196000
     28 N11         20.7640     4.0840    23.5660 ns         1 JI9      -0.464900
     29 O01         19.2350     2.7770    22.4860 o          1 JI9      -0.638100
     30 O30         21.4920    -2.1680    23.8840 os         1 JI9      -0.404500
     31 O32         19.8660    -3.7100    25.0900 o          1 JI9      -0.891833
     32 O33         21.1250    -4.5760    23.2070 o          1 JI9      -0.891833
     33 O34         19.3250    -2.9940    22.8270 o          1 JI9      -0.891833
     34 P31         20.4300    -3.3750    23.7520 p5         1 JI9       1.247900
     35 H1          23.9250     3.1050    21.8200 ha         1 JI9       0.124500
     36 H2          18.8810     6.8400    28.2860 h1         1 JI9       0.049700
     37 H3          19.9280     7.6580    27.1170 h1         1 JI9       0.049700
     38 H5          13.5850     8.8450    27.6290 hc         1 JI9       0.047033
     39 H6          13.3480     7.5260    26.4710 hc         1 JI9       0.047033
     40 H7          14.0570     7.1950    28.0580 hc         1 JI9       0.047033
     41 H8          19.1460    -1.0720    24.7590 ha         1 JI9       0.132500
     42 H9          21.8970     4.2500    21.3110 hc         1 JI9       0.068700
     43 H10         20.6270     3.4300    20.3530 hc         1 JI9       0.068700
     44 H11         20.4410     0.8220    20.6390 ha         1 JI9       0.124500
     45 H12         21.8260    -1.2470    20.5860 ha         1 JI9       0.125000
     46 H13         25.2950     1.0300    21.7570 ha         1 JI9       0.125000
     47 H14         19.0780     3.7850    24.7980 h1         1 JI9       0.076700
     48 H15         16.9770    10.0270    24.2310 ha         1 JI9       0.118000
     49 H16         16.4200     6.8140    28.0020 ha         1 JI9       0.150000
     50 H17         21.8270     3.5760    26.1250 hc         1 JI9       0.038700
     51 H18         20.2890     3.1330    26.8340 hc         1 JI9       0.038700
     52 H19         18.9080     1.2240    25.6210 ha         1 JI9       0.061000
     53 H20         23.3630    -0.3990    24.1100 ha         1 JI9       0.132500
     54 H21         23.1250     1.9170    24.9660 ha         1 JI9       0.061000
     55 H22         21.6460     4.5690    23.4530 hn         1 JI9       0.337500
     56 N14         19.2520     5.7490    26.5440 ns         1 JI9      -0.504900
     57 H23         18.7440     4.9390    26.8790 hn         1 JI9       0.327500
     58 O24         20.7300     6.4840    24.9750 o          1 JI9      -0.612100
     59 H4          18.9630     8.8470    25.1600 ha         1 JI9       0.108000
@<TRIPOS>BOND
     1     1    11 ar  
     2     1    15 ar  
     3     1    35 1   
     4     2    16 1   
     5     2    56 1   
     6     2    58 2   
     7     3    17 1   
     8     3    36 1   
     9     3    37 1   
    10     3    56 1   
    11     4    17 ar  
    12     4    18 ar  
    13     4    59 1   
    14     5     6 1   
    15     5    19 ar  
    16     5    20 ar  
    17     6    38 1   
    18     6    39 1   
    19     6    40 1   
    20     7    21 1   
    21     7    22 ar  
    22     7    25 ar  
    23     8    22 ar  
    24     8    23 ar  
    25     8    41 1   
    26     9    10 1   
    27     9    28 1   
    28     9    29 2   
    29    10    11 1   
    30    10    42 1   
    31    10    43 1   
    32    11    12 ar  
    33    12    13 ar  
    34    12    44 1   
    35    13    14 ar  
    36    13    45 1   
    37    14    15 ar  
    38    14    26 1   
    39    15    46 1   
    40    16    21 1   
    41    16    28 1   
    42    16    47 1   
    43    17    20 ar  
    44    18    19 ar  
    45    18    48 1   
    46    19    27 1   
    47    20    49 1   
    48    21    50 1   
    49    21    51 1   
    50    22    52 1   
    51    23    24 ar  
    52    23    30 1   
    53    24    25 ar  
    54    24    53 1   
    55    25    54 1   
    56    28    55 1   
    57    30    34 1   
    58    31    34 1   
    59    32    34 1   
    60    33    34 1   
    61    56    57 1   
@<TRIPOS>SUBSTRUCTURE
     1 JI9         1 TEMP              0 ****  ****    0 ROOT
