@<TRIPOS>MOLECULE
JI9
   59    61     1     0     0
SMALL
bcc


@<TRIPOS>ATOM
      1 C10         19.5580     1.4070    20.8720 ca         1 JI9      -0.086500
      2 C13         20.0010     4.8890    26.1970 c          1 JI9       0.648100
      3 C15         18.2230     6.2020    27.2290 c3         1 JI9       0.158300
      4 C17         17.5150     8.4350    26.3490 ca         1 JI9      -0.109000
      5 C21         17.0180     7.4000    23.7960 ca         1 JI9      -0.108300
      6 C22         16.7750     6.8630    22.4160 c3         1 JI9      -0.043800
      7 C26         22.2770     1.7960    26.5350 ca         1 JI9      -0.252300
      8 C28         22.1570    -0.6220    26.7560 ca         1 JI9      -0.236000
      9 C02         19.9980     3.3800    23.4910 c          1 JI9       0.673100
     10 C03         20.6070     3.3310    22.0980 c3         1 JI9      -0.116100
     11 C04         19.6550     2.7800    21.0790 ca         1 JI9      -0.070300
     12 C05         18.8330     3.6220    20.3350 ca         1 JI9      -0.086500
     13 C06         17.9330     3.1160    19.4070 ca         1 JI9      -0.173500
     14 C07         17.8660     1.7470    19.2330 ca         1 JI9       0.121900
     15 C09         18.6650     0.8790    19.9510 ca         1 JI9      -0.173500
     16 C12         20.5020     3.4790    25.8790 c3         1 JI9       0.039700
     17 C16         17.7410     7.0860    26.1000 ca         1 JI9      -0.099300
     18 C18         17.0350     9.2680    25.3490 ca         1 JI9      -0.177000
     19 C19         16.7960     8.7340    24.0990 ca         1 JI9       0.115900
     20 C23         17.4860     6.5890    24.8270 ca         1 JI9      -0.080000
     21 C25         21.7000     3.1620    26.7860 c3         1 JI9       0.001900
     22 C27         21.6600     0.6450    27.0210 ca         1 JI9      -0.096000
     23 C29         23.3110    -0.7890    25.9750 ca         1 JI9       0.330100
     24 C35         23.9390     0.3690    25.4980 ca         1 JI9      -0.236000
     25 C36         23.4300     1.6280    25.7730 ca         1 JI9      -0.096000
     26 F08         16.9980     1.2470    18.3360 f          1 JI9      -0.158900
     27 F20         16.3340     9.5460    23.1290 f          1 JI9      -0.160900
     28 N11         20.8920     3.3880    24.4930 ns         1 JI9      -0.531900
     29 O01         18.7930     3.4280    23.6810 o          1 JI9      -0.638100
     30 O30         23.8240    -1.9670    25.6400 os         1 JI9      -0.404500
     31 O32         24.3920    -2.8590    27.9890 o          1 JI9      -0.891833
     32 O33         24.7260    -4.2900    25.8690 o          1 JI9      -0.891833
     33 O34         22.3600    -3.8210    26.7470 o          1 JI9      -0.891833
     34 P31         23.8190    -3.3960    26.6900 p5         1 JI9       1.247900
     35 H1          20.1910     0.7330    21.4370 ha         1 JI9       0.142500
     36 H2          17.3830     5.9560    27.8800 h1         1 JI9       0.049700
     37 H3          18.9340     6.7600    27.8430 h1         1 JI9       0.049700
     38 H5          15.7310     6.9650    22.1190 hc         1 JI9       0.047033
     39 H6          17.3750     7.3860    21.6700 hc         1 JI9       0.047033
     40 H7          17.0340     5.8070    22.3650 hc         1 JI9       0.047033
     41 H8          21.6400    -1.4920    27.1360 ha         1 JI9       0.150500
     42 H9          21.5330     2.7520    22.1140 hc         1 JI9       0.068700
     43 H10         20.8920     4.3550    21.8350 hc         1 JI9       0.068700
     44 H11         18.8950     4.6940    20.4760 ha         1 JI9       0.142500
     45 H12         17.2990     3.7760    18.8300 ha         1 JI9       0.143000
     46 H13         18.5960    -0.1900    19.7940 ha         1 JI9       0.143000
     47 H14         19.7150     2.7430    26.0740 h1         1 JI9       0.076700
     48 H15         16.8570    10.3200    25.5350 ha         1 JI9       0.136000
     49 H16         17.6640     5.5430    24.6140 ha         1 JI9       0.168000
     50 H17         22.4660     3.9260    26.6360 hc         1 JI9       0.038700
     51 H18         21.3620     3.2520    27.8210 hc         1 JI9       0.038700
     52 H19         20.7630     0.7380    27.6240 ha         1 JI9       0.079000
     53 H20         24.8390     0.2710    24.9020 ha         1 JI9       0.150500
     54 H21         23.9500     2.5000    25.3890 ha         1 JI9       0.079000
     55 H22         21.8750     3.3750    24.2700 hn         1 JI9       0.337500
     56 N14         18.8120     4.9540    26.8140 ns         1 JI9      -0.571900
     57 H23         18.2780     4.1100    26.9360 hn         1 JI9       0.327500
     58 O24         20.6750     5.8720    25.9380 o          1 JI9      -0.612100
     59 H4          17.7160     8.8480    27.3300 ha         1 JI9       0.126000
@<TRIPOS>BOND
     1     1    11 ar  
     2     1    15 ar  
     3     1    35 1   
     4     2    16 1   
     5     2    56 1   
     6     2    58 2   
     7     3    17 1   
     8     3    36 1   
     9     3    37 1   
    10     3    56 1   
    11     4    17 ar  
    12     4    18 ar  
    13     4    59 1   
    14     5     6 1   
    15     5    19 ar  
    16     5    20 ar  
    17     6    38 1   
    18     6    39 1   
    19     6    40 1   
    20     7    21 1   
    21     7    22 ar  
    22     7    25 ar  
    23     8    22 ar  
    24     8    23 ar  
    25     8    41 1   
    26     9    10 1   
    27     9    28 1   
    28     9    29 2   
    29    10    11 1   
    30    10    42 1   
    31    10    43 1   
    32    11    12 ar  
    33    12    13 ar  
    34    12    44 1   
    35    13    14 ar  
    36    13    45 1   
    37    14    15 ar  
    38    14    26 1   
    39    15    46 1   
    40    16    21 1   
    41    16    28 1   
    42    16    47 1   
    43    17    20 ar  
    44    18    19 ar  
    45    18    48 1   
    46    19    27 1   
    47    20    49 1   
    48    21    50 1   
    49    21    51 1   
    50    22    52 1   
    51    23    24 ar  
    52    23    30 1   
    53    24    25 ar  
    54    24    53 1   
    55    25    54 1   
    56    28    55 1   
    57    30    34 1   
    58    31    34 1   
    59    32    34 1   
    60    33    34 1   
    61    56    57 1   
@<TRIPOS>SUBSTRUCTURE
     1 JI9         1 TEMP              0 ****  ****    0 ROOT
