@<TRIPOS>MOLECULE
JIA
   72    74     1     0     0
SMALL
abcg2


@<TRIPOS>ATOM
      1 C15          5.5150     2.8450    -0.4910 c3         1 JIA      -0.125100
      2 C16          6.7780     0.5920     1.8200 c3         1 JIA       0.163100
      3 C17         -0.4510    -2.5830     1.2390 c6         1 JIA      -0.117400
      4 C18         -1.4690    -1.5010     1.5690 c6         1 JIA       0.172500
      5 C19         -1.4780    -0.4550     0.4550 c6         1 JIA       0.184300
      6 C20         -0.0860     0.1600     0.3180 c6         1 JIA       0.144300
      7 C21          5.0730     1.4980    -1.0500 c6         1 JIA       0.119000
      8 C22          3.6390     1.6240    -1.5600 c6         1 JIA       0.136600
      9 C23          0.9600    -0.9230     0.0350 c6         1 JIA       0.150300
     10 C24          5.1300     0.3850     0.0140 c6         1 JIA       0.192500
     11 C06         -4.9260    -1.1640    -2.1970 c3         1 JIA       0.162800
     12 C07          3.0850    -0.6210    -1.0760 c6         1 JIA       0.349300
     13 C08          0.9560    -2.0150     1.0980 c6         1 JIA       0.136500
     14 C09         -3.0720     1.2710    -0.1880 c6         1 JIA       0.402300
     15 C10         -4.2060     2.0660     0.4610 c6         1 JIA       0.148500
     16 C11         -5.3030     1.1130     0.9130 c6         1 JIA       0.147300
     17 C12          4.4870    -0.9000    -0.5230 c6         1 JIA       0.181300
     18 C13         -5.7540     0.2330    -0.2520 c6         1 JIA       0.110300
     19 C14         -4.5620    -0.4620    -0.9030 c6         1 JIA       0.157300
     20 N01         -3.7150     2.8520     1.5770 n8         1 JIA      -0.979200
     21 N03         -2.7840    -2.0990     1.7140 n8         1 JIA      -0.993200
     22 N04          1.9660    -3.0170     0.7790 n8         1 JIA      -1.002200
     23 N05          6.4740     0.1100     0.4900 n7         1 JIA      -0.866400
     24 O25         -6.6580    -0.7590     0.1910 oh         1 JIA      -0.718000
     25 O26         -6.3760     1.8890     1.4090 oh         1 JIA      -0.671000
     26 O27          4.4800    -1.8820     0.4730 oh         1 JIA      -0.740000
     27 O28          2.2260    -0.2960    -0.0180 os         1 JIA      -0.496000
     28 O29          3.1110     0.3990    -2.0290 os         1 JIA      -0.450000
     29 O30         -3.5680     0.5000    -1.2400 os         1 JIA      -0.482000
     30 O31         -0.1080     1.1030    -0.7250 oh         1 JIA      -0.718000
     31 O32         -2.4520     0.5090     0.8110 os         1 JIA      -0.476000
     32 O33          5.9340     1.0860    -2.1000 oh         1 JIA      -0.709000
     33 H1           4.8990     3.1490     0.3560 hc         1 JIA       0.044367
     34 H2           6.5520     2.8140    -0.1600 hc         1 JIA       0.044367
     35 H3           5.4340     3.6240    -1.2530 hc         1 JIA       0.044367
     36 H4           6.6200     1.6680     1.9760 h1         1 JIA       0.024033
     37 H5           6.1680     0.0640     2.5550 h1         1 JIA       0.024033
     38 H6           7.8210     0.3780     2.0520 h1         1 JIA       0.024033
     39 H7          -0.4540    -3.3440     2.0250 hc         1 JIA       0.055700
     40 H8          -0.7470    -3.0840     0.3110 hc         1 JIA       0.055700
     41 H9          -1.1380    -0.9980     2.4940 h1         1 JIA       0.028700
     42 H10         -1.7510    -0.9530    -0.4850 h1         1 JIA       0.080700
     43 H11          0.1710     0.6430     1.2740 h1         1 JIA       0.050700
     44 H12          3.0120     2.0530    -0.7670 h1         1 JIA       0.048200
     45 H13          3.6010     2.3170    -2.4040 h1         1 JIA       0.048200
     46 H14          0.7190    -1.3770    -0.9390 h1         1 JIA       0.053700
     47 H15          4.5250     0.7250     0.8630 h1         1 JIA       0.061700
     48 H16         -5.7020    -1.9000    -1.9780 h1         1 JIA       0.036200
     49 H17         -5.3760    -0.4290    -2.8830 h1         1 JIA       0.036200
     50 H18          2.7100    -1.5040    -1.6060 h2         1 JIA       0.072700
     51 H19          1.2480    -1.5620     2.0520 h1         1 JIA       0.078700
     52 H20         -2.3610     1.9570    -0.6560 h2         1 JIA       0.087700
     53 H21         -4.6230     2.6910    -0.3470 h1         1 JIA       0.037700
     54 H22         -4.9020     0.4710     1.7100 h1         1 JIA       0.068700
     55 H23          5.0850    -1.2440    -1.3810 h1         1 JIA       0.069700
     56 H24         -6.2280     0.8830    -1.0020 h1         1 JIA       0.046700
     57 H25         -4.1460    -1.2070    -0.2120 h1         1 JIA       0.095700
     58 H26         -3.0390     3.5270     1.2390 hn         1 JIA       0.401500
     59 H27         -4.4790     3.4010     1.9500 hn         1 JIA       0.401500
     60 H29         -4.0500    -2.3550    -3.5830 hn         1 JIA       0.398000
     61 H30         -3.0800    -1.1850    -3.0390 hn         1 JIA       0.398000
     62 H32         -2.7490    -2.7920     2.4530 hn         1 JIA       0.403000
     63 H33         -3.4410    -1.3980     2.0310 hn         1 JIA       0.403000
     64 H35          2.0420    -3.6810     1.5410 hn         1 JIA       0.407000
     65 H36          1.6810    -3.5540    -0.0330 hn         1 JIA       0.407000
     66 H38          7.1600     0.4370    -0.1760 hn         1 JIA       0.428000
     67 H40         -7.5560    -0.4450     0.0590 ho         1 JIA       0.506000
     68 H41         -6.9540     1.3160     1.9210 ho         1 JIA       0.450000
     69 H42          3.5810    -2.2850     0.5600 ho         1 JIA       0.544000
     70 H43          0.7490     1.5410    -0.7530 ho         1 JIA       0.517000
     71 H44          6.0470     1.8190    -2.7140 ho         1 JIA       0.500000
     72 N02         -3.7740    -1.8600    -2.7450 n8         1 JIA      -0.994200
@<TRIPOS>BOND
     1     1     7 1   
     2     1    33 1   
     3     1    34 1   
     4     1    35 1   
     5     2    23 1   
     6     2    36 1   
     7     2    37 1   
     8     2    38 1   
     9     3     4 1   
    10     3    13 1   
    11     3    39 1   
    12     3    40 1   
    13     4     5 1   
    14     4    21 1   
    15     4    41 1   
    16     5     6 1   
    17     5    31 1   
    18     5    42 1   
    19     6     9 1   
    20     6    30 1   
    21     6    43 1   
    22     7     8 1   
    23     7    10 1   
    24     7    32 1   
    25     8    28 1   
    26     8    44 1   
    27     8    45 1   
    28     9    13 1   
    29     9    27 1   
    30     9    46 1   
    31    10    17 1   
    32    10    23 1   
    33    10    47 1   
    34    11    19 1   
    35    11    48 1   
    36    11    49 1   
    37    11    72 1   
    38    12    17 1   
    39    12    27 1   
    40    12    28 1   
    41    12    50 1   
    42    13    22 1   
    43    13    51 1   
    44    14    15 1   
    45    14    29 1   
    46    14    31 1   
    47    14    52 1   
    48    15    16 1   
    49    15    20 1   
    50    15    53 1   
    51    16    18 1   
    52    16    25 1   
    53    16    54 1   
    54    17    26 1   
    55    17    55 1   
    56    18    19 1   
    57    18    24 1   
    58    18    56 1   
    59    19    29 1   
    60    19    57 1   
    61    20    58 1   
    62    20    59 1   
    63    21    62 1   
    64    21    63 1   
    65    22    64 1   
    66    22    65 1   
    67    23    66 1   
    68    24    67 1   
    69    25    68 1   
    70    26    69 1   
    71    30    70 1   
    72    32    71 1   
    73    60    72 1   
    74    61    72 1   
@<TRIPOS>SUBSTRUCTURE
     1 JIA         1 TEMP              0 ****  ****    0 ROOT
