@<TRIPOS>MOLECULE
JIA
   72    74     1     0     0
SMALL
No Charge or Current Charge


@<TRIPOS>ATOM
      1 C15          5.8570     2.9270    -0.7380 c3         1 JIA      -0.125100
      2 C16          7.0210     1.1150     1.9390 c3         1 JIA       0.163100
      3 C17         -0.3090    -2.8130     1.0450 c6         1 JIA      -0.117400
      4 C18         -1.4720    -1.8730     1.4480 c6         1 JIA       0.172500
      5 C19         -1.5890    -0.6410     0.4820 c6         1 JIA       0.184300
      6 C20         -0.2150     0.1220     0.4800 c6         1 JIA       0.144300
      7 C21          5.3070     1.5120    -1.0770 c6         1 JIA       0.119000
      8 C22          3.8670     1.6450    -1.6530 c6         1 JIA       0.136600
      9 C23          0.9350    -0.8220     0.0230 c6         1 JIA       0.150300
     10 C24          5.2520     0.5630     0.1890 c6         1 JIA       0.192500
     11 C06         -5.2390    -1.1280    -2.3660 c3         1 JIA       0.162800
     12 C07          3.1940    -0.5590    -0.9230 c6         1 JIA       0.349300
     13 C08          1.0400    -2.0570     0.9870 c6         1 JIA       0.136500
     14 C09         -3.2370     1.1290    -0.0760 c6         1 JIA       0.402300
     15 C10         -4.3840     2.0040     0.5560 c6         1 JIA       0.148500
     16 C11         -5.6120     1.1030     0.8620 c6         1 JIA       0.147300
     17 C12          4.5480    -0.8040    -0.1640 c6         1 JIA       0.181300
     18 C13         -6.0790     0.3640    -0.4220 c6         1 JIA       0.110300
     19 C14         -4.8800    -0.4490    -1.0030 c6         1 JIA       0.157300
     20 N01         -3.9990     2.7770     1.7870 n8         1 JIA      -0.979200
     21 N03         -2.7320    -2.6480     1.5320 n8         1 JIA      -0.993200
     22 N04          2.1070    -3.0220     0.6090 n8         1 JIA      -1.002200
     23 N05          6.6250     0.3380     0.7490 n7         1 JIA      -0.866400
     24 O25         -7.2110    -0.4720    -0.1200 oh         1 JIA      -0.718000
     25 O26         -6.6620     1.9060     1.4250 oh         1 JIA      -0.671000
     26 O27          4.3530    -1.6340     1.0160 oh         1 JIA      -0.740000
     27 O28          2.1600    -0.0450    -0.0530 os         1 JIA      -0.496000
     28 O29          3.3570     0.3490    -2.0300 os         1 JIA      -0.450000
     29 O30         -3.7420     0.4280    -1.2400 os         1 JIA      -0.482000
     30 O31         -0.1830     1.3000    -0.3480 oh         1 JIA      -0.718000
     31 O32         -2.7250     0.1790     0.8910 os         1 JIA      -0.476000
     32 O33          6.1810     0.9510    -2.0780 oh         1 JIA      -0.709000
     33 H1           5.2990     3.3840     0.0890 hc         1 JIA       0.044367
     34 H2           6.9150     2.8980    -0.4540 hc         1 JIA       0.044367
     35 H3           5.7760     3.6010    -1.6000 hc         1 JIA       0.044367
     36 H4           6.9970     2.1940     1.7400 h1         1 JIA       0.024033
     37 H5           6.3450     0.9080     2.7790 h1         1 JIA       0.024033
     38 H6           8.0400     0.8490     2.2480 h1         1 JIA       0.024033
     39 H7          -0.2380    -3.6390     1.7670 hc         1 JIA       0.055700
     40 H8          -0.5260    -3.2680     0.0680 hc         1 JIA       0.055700
     41 H9          -1.2750    -1.4870     2.4600 h1         1 JIA       0.028700
     42 H10         -1.7790    -1.0270    -0.5310 h1         1 JIA       0.080700
     43 H11         -0.0040     0.4170     1.5190 h1         1 JIA       0.050700
     44 H12          3.1980     2.1100    -0.9150 h1         1 JIA       0.048200
     45 H13          3.8770     2.2900    -2.5440 h1         1 JIA       0.048200
     46 H14          0.6890    -1.1820    -0.9880 h1         1 JIA       0.053700
     47 H15          4.6280     1.0510     0.9550 h1         1 JIA       0.061700
     48 H16         -6.0660    -1.8350    -2.2120 h1         1 JIA       0.036200
     49 H17         -5.5890    -0.3460    -3.0550 h1         1 JIA       0.036200
     50 H18          2.8710    -1.5260    -1.3370 h2         1 JIA       0.072700
     51 H19          1.2770    -1.6810     1.9960 h1         1 JIA       0.078700
     52 H20         -2.4430     1.8180    -0.3930 h2         1 JIA       0.087700
     53 H21         -4.6880     2.7480    -0.1950 h1         1 JIA       0.037700
     54 H22         -5.2980     0.3450     1.5970 h1         1 JIA       0.068700
     55 H23          5.2030    -1.3370    -0.8690 h1         1 JIA       0.069700
     56 H24         -6.3670     1.1180    -1.1710 h1         1 JIA       0.046700
     57 H25         -4.5890    -1.2370    -0.2930 h1         1 JIA       0.095700
     58 H26         -3.4830     2.1420     2.4100 hn         1 JIA       0.401500
     59 H27         -3.2900     3.4770     1.5350 hn         1 JIA       0.401500
     60 H29         -4.3790    -2.0770    -3.9840 hn         1 JIA       0.398000
     61 H30         -3.3400    -1.1870    -3.1220 hn         1 JIA       0.398000
     62 H32         -2.6990    -3.2450     2.3660 hn         1 JIA       0.403000
     63 H33         -3.4860    -1.9830     1.7410 hn         1 JIA       0.403000
     64 H35          2.0850    -3.8050     1.2800 hn         1 JIA       0.407000
     65 H36          1.8290    -3.4900    -0.2660 hn         1 JIA       0.407000
     66 H38          7.2840     0.5260    -0.0170 hn         1 JIA       0.428000
     67 H40         -7.7590     0.0600     0.5070 ho         1 JIA       0.506000
     68 H41         -6.1660     2.6110     1.9090 ho         1 JIA       0.450000
     69 H42          3.4800    -2.1180     0.8710 ho         1 JIA       0.544000
     70 H43          0.7750     1.4160    -0.5560 ho         1 JIA       0.517000
     71 H44          5.5980     0.4930    -2.7270 ho         1 JIA       0.500000
     72 N02         -4.1170    -1.8510    -3.0170 n8         1 JIA      -0.994200
@<TRIPOS>BOND
     1     1     7 1   
     2     1    33 1   
     3     1    34 1   
     4     1    35 1   
     5     2    23 1   
     6     2    36 1   
     7     2    37 1   
     8     2    38 1   
     9     3     4 1   
    10     3    13 1   
    11     3    39 1   
    12     3    40 1   
    13     4     5 1   
    14     4    21 1   
    15     4    41 1   
    16     5     6 1   
    17     5    31 1   
    18     5    42 1   
    19     6     9 1   
    20     6    30 1   
    21     6    43 1   
    22     7     8 1   
    23     7    10 1   
    24     7    32 1   
    25     8    28 1   
    26     8    44 1   
    27     8    45 1   
    28     9    13 1   
    29     9    27 1   
    30     9    46 1   
    31    10    17 1   
    32    10    23 1   
    33    10    47 1   
    34    11    19 1   
    35    11    48 1   
    36    11    49 1   
    37    11    72 1   
    38    12    17 1   
    39    12    27 1   
    40    12    28 1   
    41    12    50 1   
    42    13    22 1   
    43    13    51 1   
    44    14    15 1   
    45    14    29 1   
    46    14    31 1   
    47    14    52 1   
    48    15    16 1   
    49    15    20 1   
    50    15    53 1   
    51    16    18 1   
    52    16    25 1   
    53    16    54 1   
    54    17    26 1   
    55    17    55 1   
    56    18    19 1   
    57    18    24 1   
    58    18    56 1   
    59    19    29 1   
    60    19    57 1   
    61    20    58 1   
    62    20    59 1   
    63    21    62 1   
    64    21    63 1   
    65    22    64 1   
    66    22    65 1   
    67    23    66 1   
    68    24    67 1   
    69    25    68 1   
    70    26    69 1   
    71    30    70 1   
    72    32    71 1   
    73    60    72 1   
    74    61    72 1   
@<TRIPOS>SUBSTRUCTURE
     1 JIA         1 TEMP              0 ****  ****    0 ROOT
