@<TRIPOS>MOLECULE
JIB
   33    35     1     0     0
SMALL
abcg2


@<TRIPOS>ATOM
      1 C10        -23.2620    30.2410   -23.0550 c3         1 JIB       0.138900
      2 C13        -23.7460    33.0310   -25.5780 ca         1 JIB      -0.093500
      3 C15        -25.7370    33.8590   -26.9240 c          1 JIB       0.712600
      4 C20        -21.5110    28.8730   -24.2460 cc         1 JIB       0.412700
      5 C02        -24.9970    26.3800   -24.0010 ca         1 JIB       0.277000
      6 C04        -23.0260    25.8070   -25.0030 ca         1 JIB       0.453900
      7 C06        -22.7630    23.6210   -26.0710 c3         1 JIB       0.227100
      8 C07        -22.5450    27.0800   -24.6330 ca         1 JIB      -0.100600
      9 C08        -23.4300    27.8920   -23.9430 ca         1 JIB       0.130500
     10 C11        -23.9070    31.1760   -24.0440 ca         1 JIB      -0.168300
     11 C12        -23.1610    32.1780   -24.6540 ca         1 JIB      -0.116000
     12 C14        -25.0910    32.9070   -25.9180 ca         1 JIB      -0.114600
     13 C18        -25.8310    31.8980   -25.3050 ca         1 JIB      -0.093500
     14 C19        -25.2500    31.0430   -24.3800 ca         1 JIB      -0.116000
     15 N03        -24.2830    25.4900   -24.6620 nb         1 JIB      -0.299000
     16 N05        -22.2900    24.9250   -25.6710 nu         1 JIB      -0.916100
     17 N09        -22.7490    29.0400   -23.6940 na         1 JIB      -0.255300
     18 N21        -21.3470    27.7130   -24.8140 nd         1 JIB      -0.571100
     19 N22        -24.6840    27.5840   -23.5970 nb         1 JIB      -0.189000
     20 O16        -24.9910    34.7240   -27.4210 o          1 JIB      -0.715000
     21 O17        -26.9490    33.6860   -27.1520 o          1 JIB      -0.715000
     22 H101       -23.9710    29.9310   -22.2880 h1         1 JIB       0.059700
     23 H102       -22.4260    30.7250   -22.5500 h1         1 JIB       0.059700
     24 H131       -23.1520    33.8090   -26.0400 ha         1 JIB       0.130500
     25 H201       -20.7670    29.6540   -24.1860 h5         1 JIB       0.066800
     26 H062       -21.9570    23.1130   -26.5910 h1         1 JIB       0.040367
     27 H063       -23.0540    23.0170   -25.2120 h1         1 JIB       0.040367
     28 H061       -23.6180    23.6940   -26.7440 h1         1 JIB       0.040367
     29 H121       -22.1140    32.3000   -24.3990 ha         1 JIB       0.092000
     30 H181       -26.8780    31.7840   -25.5520 ha         1 JIB       0.130500
     31 H191       -25.8470    30.2690   -23.9120 ha         1 JIB       0.092000
     32 H051       -21.3500    25.1920   -25.9140 hn         1 JIB       0.514000
     33 CL01       -26.6110    25.8660   -23.6070 cl         1 JIB      -0.156000
@<TRIPOS>BOND
     1     1    10 1   
     2     1    17 1   
     3     1    22 1   
     4     1    23 1   
     5     2    11 ar  
     6     2    12 ar  
     7     2    24 1   
     8     3    12 1   
     9     3    20 1   
    10     3    21 1   
    11     4    17 1   
    12     4    18 2   
    13     4    25 1   
    14     5    15 ar  
    15     5    19 ar  
    16     5    33 1   
    17     6     8 ar  
    18     6    15 ar  
    19     6    16 1   
    20     7    16 1   
    21     7    26 1   
    22     7    27 1   
    23     7    28 1   
    24     8     9 ar  
    25     8    18 1   
    26     9    17 1   
    27     9    19 ar  
    28    10    11 ar  
    29    10    14 ar  
    30    11    29 1   
    31    12    13 ar  
    32    13    14 ar  
    33    13    30 1   
    34    14    31 1   
    35    16    32 1   
@<TRIPOS>SUBSTRUCTURE
     1 JIB         1 TEMP              0 ****  ****    0 ROOT
