@<TRIPOS>MOLECULE
JIB
   33    35     1     0     0
SMALL
No Charge or Current Charge


@<TRIPOS>ATOM
      1 C10        -23.2670    30.2390   -23.0430 c3         1 JIB       0.138900
      2 C13        -23.7280    32.9510   -25.7180 ca         1 JIB      -0.093500
      3 C15        -25.7800    33.9040   -26.9060 c          1 JIB       0.712600
      4 C20        -21.4280    28.8390   -24.1790 cc         1 JIB       0.412700
      5 C02        -25.1240    26.3700   -24.1060 ca         1 JIB       0.277000
      6 C04        -23.0810    25.8020   -24.9750 ca         1 JIB       0.453900
      7 C06        -22.6070    23.5440   -26.1100 c3         1 JIB       0.227100
      8 C07        -22.5950    27.0660   -24.5780 ca         1 JIB      -0.100600
      9 C08        -23.4610    27.9230   -23.9430 ca         1 JIB       0.130500
     10 C11        -23.9180    31.1910   -24.0380 ca         1 JIB      -0.168300
     11 C12        -23.1300    32.0760   -24.7950 ca         1 JIB      -0.116000
     12 C14        -25.1310    32.9570   -25.9060 ca         1 JIB      -0.114600
     13 C18        -25.9140    32.0610   -25.1410 ca         1 JIB      -0.093500
     14 C19        -25.3130    31.1880   -24.2180 ca         1 JIB      -0.116000
     15 N03        -24.3590    25.4490   -24.7370 nb         1 JIB      -0.299000
     16 N05        -22.2560    24.8880   -25.6210 nu         1 JIB      -0.916100
     17 N09        -22.7180    29.0400   -23.6890 na         1 JIB      -0.255300
     18 N21        -21.3130    27.6160   -24.7360 nd         1 JIB      -0.571100
     19 N22        -24.7430    27.6000   -23.6910 nb         1 JIB      -0.189000
     20 O16        -25.0640    34.6610   -27.5470 o          1 JIB      -0.715000
     21 O17        -26.9960    33.8760   -27.0350 o          1 JIB      -0.715000
     22 H101       -23.9990    29.9340   -22.2840 h1         1 JIB       0.059700
     23 H102       -22.4550    30.7600   -22.5200 h1         1 JIB       0.059700
     24 H131       -23.0950    33.6250   -26.2900 ha         1 JIB       0.130500
     25 H201       -20.6500    29.5910   -24.1050 h5         1 JIB       0.066800
     26 H062       -21.7370    23.0650   -26.5790 h1         1 JIB       0.040367
     27 H063       -22.9460    22.9090   -25.2800 h1         1 JIB       0.040367
     28 H061       -23.4130    23.6030   -26.8540 h1         1 JIB       0.040367
     29 H121       -22.0500    32.0880   -24.6690 ha         1 JIB       0.092000
     30 H181       -26.9950    32.0380   -25.2600 ha         1 JIB       0.130500
     31 H191       -25.9360    30.5050   -23.6430 ha         1 JIB       0.092000
     32 H051       -21.3020    25.2260   -25.7710 hn         1 JIB       0.514000
     33 Cl01       -26.7920    25.9190   -23.7930 cl         1 JIB      -0.156000
@<TRIPOS>BOND
     1     1    10 1   
     2     1    17 1   
     3     1    22 1   
     4     1    23 1   
     5     2    11 ar  
     6     2    12 ar  
     7     2    24 1   
     8     3    12 1   
     9     3    20 1   
    10     3    21 1   
    11     4    17 1   
    12     4    18 2   
    13     4    25 1   
    14     5    15 ar  
    15     5    19 ar  
    16     5    33 1   
    17     6     8 ar  
    18     6    15 ar  
    19     6    16 1   
    20     7    16 1   
    21     7    26 1   
    22     7    27 1   
    23     7    28 1   
    24     8     9 ar  
    25     8    18 1   
    26     9    17 1   
    27     9    19 ar  
    28    10    11 ar  
    29    10    14 ar  
    30    11    29 1   
    31    12    13 ar  
    32    13    14 ar  
    33    13    30 1   
    34    14    31 1   
    35    16    32 1   
@<TRIPOS>SUBSTRUCTURE
     1 JIB         1 TEMP              0 ****  ****    0 ROOT
