@<TRIPOS>MOLECULE
JIC
   50    54     1     0     0
SMALL
No Charge or Current Charge


@<TRIPOS>ATOM
      1 N3         106.3060   105.7310    61.9510 ns         1 JIC      -0.461900
      2 C4         108.7720   105.5170    59.1040 cc         1 JIC      -0.147600
      3 C5         107.9300   105.3510    60.2170 cd         1 JIC      -0.265600
      4 C6         108.8530   110.6340    56.0020 cc         1 JIC      -0.053000
      5 C10        108.9160   112.4670    54.8500 cd         1 JIC       0.127400
      6 N12        109.4340   104.2800    59.0340 na         1 JIC       0.181800
      7 C15        108.1740   104.0430    60.6940 cd         1 JIC       0.255900
      8 C21        109.3330   113.4120    53.7900 ca         1 JIC      -0.016800
      9 C22        110.4510   103.8650    58.0520 c3         1 JIC       0.068900
     10 C24        110.3030   113.0410    52.8310 ca         1 JIC      -0.090000
     11 C26        110.6980   113.9400    51.8240 ca         1 JIC      -0.117500
     12 C28        105.3200   106.4190    62.7410 cx         1 JIC       0.039700
     13 C1         106.9450   106.2740    60.8590 c          1 JIC       0.661700
     14 O2         106.6940   107.4090    60.4910 o          1 JIC      -0.635100
     15 N7         109.4480   111.1800    54.9590 nd         1 JIC      -0.296600
     16 N9         107.9830   111.5340    56.5290 na         1 JIC       0.121100
     17 C11        109.0010   109.3440    56.5780 cc         1 JIC      -0.121000
     18 N13        109.0690   103.3810    60.0050 nc         1 JIC      -0.508800
     19 C14        107.9820   112.7090    55.8420 cc         1 JIC      -0.275100
     20 C16        108.2390   109.0290    57.6880 cd         1 JIC       0.077600
     21 N17        108.2670   107.8150    58.3670 ns         1 JIC      -0.395100
     22 C18        107.1780   111.3010    57.6430 cc         1 JIC      -0.092000
     23 C19        107.3290   110.0310    58.2040 cd         1 JIC      -0.169000
     24 O20        109.7990   106.5830    57.2370 o          1 JIC      -0.588100
     25 C23        108.7700   114.7050    53.7150 ca         1 JIC      -0.090000
     26 C25        109.1660   115.6030    52.7080 ca         1 JIC      -0.117500
     27 C27        110.1300   115.2210    51.7620 ca         1 JIC      -0.107000
     28 C29        105.7790   107.0670    64.0240 cx         1 JIC      -0.130400
     29 C30        104.9400   105.8140    64.0700 cx         1 JIC      -0.130400
     30 H1         106.5560   104.7830    62.1970 hn         1 JIC       0.327500
     31 H2         107.7180   103.5430    61.5400 h4         1 JIC       0.043100
     32 H3         110.7810   102.8400    58.2580 h1         1 JIC       0.072700
     33 H4         110.0240   103.9070    57.0430 h1         1 JIC       0.072700
     34 H5         111.3150   104.5370    58.1130 h1         1 JIC       0.072700
     35 H6         110.7570   112.0530    52.8590 ha         1 JIC       0.121000
     36 H7         111.4450   113.6410    51.0930 ha         1 JIC       0.110500
     37 H8         104.5410   106.9170    62.1610 h1         1 JIC       0.091700
     38 H9         109.7070   108.6640    56.1210 ha         1 JIC       0.172000
     39 H10        107.3650   113.5630    56.0900 h4         1 JIC       0.230000
     40 H11        107.6500   107.7290    59.1630 hn         1 JIC       0.379500
     41 H12        106.5160   112.0860    57.9850 h4         1 JIC       0.144000
     42 H13        106.7270   109.7920    59.0750 ha         1 JIC       0.144000
     43 H14        108.0210   115.0240    54.4350 ha         1 JIC       0.121000
     44 H15        108.7230   116.5960    52.6620 ha         1 JIC       0.110500
     45 H16        110.4350   115.9170    50.9830 ha         1 JIC       0.110000
     46 H17        106.8310   106.9860    64.2890 hc         1 JIC       0.079700
     47 H18        105.3090   108.0050    64.3100 hc         1 JIC       0.079700
     48 H19        103.9040   105.9090    64.3890 hc         1 JIC       0.079700
     49 H20        105.4260   104.8900    64.3750 hc         1 JIC       0.079700
     50 C8         108.9980   106.6670    58.1550 c          1 JIC       0.632700
@<TRIPOS>BOND
     1     1    12 1   
     2     1    13 1   
     3     1    30 1   
     4     2     3 2   
     5     2     6 1   
     6     2    50 1   
     7     3     7 1   
     8     3    13 1   
     9     4    15 2   
    10     4    16 1   
    11     4    17 1   
    12     5     8 1   
    13     5    15 1   
    14     5    19 2   
    15     6     9 1   
    16     6    18 1   
    17     7    18 2   
    18     7    31 1   
    19     8    10 ar  
    20     8    25 ar  
    21     9    32 1   
    22     9    33 1   
    23     9    34 1   
    24    10    11 ar  
    25    10    35 1   
    26    11    27 ar  
    27    11    36 1   
    28    12    28 1   
    29    12    29 1   
    30    12    37 1   
    31    13    14 2   
    32    16    19 1   
    33    16    22 1   
    34    17    20 2   
    35    17    38 1   
    36    19    39 1   
    37    20    21 1   
    38    20    23 1   
    39    21    40 1   
    40    21    50 1   
    41    22    23 2   
    42    22    41 1   
    43    23    42 1   
    44    24    50 2   
    45    25    26 ar  
    46    25    43 1   
    47    26    27 ar  
    48    26    44 1   
    49    27    45 1   
    50    28    29 1   
    51    28    46 1   
    52    28    47 1   
    53    29    48 1   
    54    29    49 1   
@<TRIPOS>SUBSTRUCTURE
     1 JIC         1 TEMP              0 ****  ****    0 ROOT
