@<TRIPOS>MOLECULE
JIC
   50    54     1     0     0
SMALL
abcg2


@<TRIPOS>ATOM
      1 N3         106.0380   105.6280    61.5750 ns         1 JIC      -0.461900
      2 C4         108.8700   105.6520    59.2070 cc         1 JIC      -0.147600
      3 C5         108.0350   105.4090    60.2990 cd         1 JIC      -0.265600
      4 C6         108.8590   110.6780    56.1780 cc         1 JIC      -0.053000
      5 C10        108.9370   112.4440    54.9720 cd         1 JIC       0.127400
      6 N12        109.6280   104.5430    59.0660 na         1 JIC       0.181800
      7 C15        108.3930   104.1220    60.7250 cd         1 JIC       0.255900
      8 C21        109.1930   113.2670    53.7890 ca         1 JIC      -0.016800
      9 C22        110.6780   104.2470    58.1070 c3         1 JIC       0.068900
     10 C24        109.6100   112.6740    52.5960 ca         1 JIC      -0.090000
     11 C26        109.8540   113.4450    51.4690 ca         1 JIC      -0.117500
     12 C28        105.0140   106.3140    62.2950 cx         1 JIC       0.039700
     13 C1         107.0270   106.2730    60.9430 c          1 JIC       0.661700
     14 O2         107.1030   107.5020    60.9320 o          1 JIC      -0.635100
     15 N7         109.1980   111.1070    54.9780 nd         1 JIC      -0.296600
     16 N9         108.3790   111.7180    56.9500 na         1 JIC       0.121100
     17 C11        108.9320   109.3800    56.7220 cc         1 JIC      -0.121000
     18 N13        109.3560   103.6250    59.9810 nc         1 JIC      -0.508800
     19 C14        108.4280   112.8500    56.1820 cc         1 JIC      -0.275100
     20 C16        108.5200   109.1770    58.0150 cd         1 JIC       0.077600
     21 N17        108.5430   107.9650    58.6940 ns         1 JIC      -0.395100
     22 C18        107.9620   111.5240    58.2310 cc         1 JIC      -0.092000
     23 C19        108.0230   110.2860    58.7700 cd         1 JIC      -0.169000
     24 O20        109.4640   106.5910    57.1300 o          1 JIC      -0.588100
     25 C23        109.0310   114.6540    53.8230 ca         1 JIC      -0.090000
     26 C25        109.2750   115.4230    52.6960 ca         1 JIC      -0.117500
     27 C27        109.6870   114.8230    51.5130 ca         1 JIC      -0.107000
     28 C29        105.3310   106.8910    63.6380 cx         1 JIC      -0.130400
     29 C30        104.4900   105.6570    63.5300 cx         1 JIC      -0.130400
     30 H1         105.9280   104.6350    61.4320 hn         1 JIC       0.327500
     31 H2         108.0040   103.5590    61.5610 h4         1 JIC       0.043100
     32 H3         111.1880   103.3600    58.4700 h1         1 JIC       0.072700
     33 H4         110.2650   104.0490    57.1220 h1         1 JIC       0.072700
     34 H5         111.3880   105.0660    58.0430 h1         1 JIC       0.072700
     35 H6         109.7430   111.6010    52.5530 ha         1 JIC       0.121000
     36 H7         110.1750   112.9660    50.5530 ha         1 JIC       0.110500
     37 H8         104.3030   106.8540    61.6780 h1         1 JIC       0.091700
     38 H9         109.3150   108.5930    56.0960 ha         1 JIC       0.172000
     39 H10        108.0990   113.8050    56.5580 h4         1 JIC       0.230000
     40 H11        108.1210   107.9650    59.6320 hn         1 JIC       0.379500
     41 H12        107.5960   112.3870    58.7670 h4         1 JIC       0.144000
     42 H13        107.6900   110.1500    59.7900 ha         1 JIC       0.144000
     43 H14        108.7150   115.1450    54.7350 ha         1 JIC       0.121000
     44 H15        109.1440   116.4970    52.7430 ha         1 JIC       0.110500
     45 H16        109.8780   115.4240    50.6330 ha         1 JIC       0.110000
     46 H17        106.3430   106.7780    64.0050 hc         1 JIC       0.079700
     47 H18        104.8540   107.8240    63.9070 hc         1 JIC       0.079700
     48 H19        103.4280   105.7310    63.7230 hc         1 JIC       0.079700
     49 H20        104.9370   104.7160    63.8240 hc         1 JIC       0.079700
     50 C8         108.9870   106.7750    58.2360 c          1 JIC       0.632700
@<TRIPOS>BOND
     1     1    12 1   
     2     1    13 1   
     3     1    30 1   
     4     2     3 2   
     5     2     6 1   
     6     2    50 1   
     7     3     7 1   
     8     3    13 1   
     9     4    15 2   
    10     4    16 1   
    11     4    17 1   
    12     5     8 1   
    13     5    15 1   
    14     5    19 2   
    15     6     9 1   
    16     6    18 1   
    17     7    18 2   
    18     7    31 1   
    19     8    10 ar  
    20     8    25 ar  
    21     9    32 1   
    22     9    33 1   
    23     9    34 1   
    24    10    11 ar  
    25    10    35 1   
    26    11    27 ar  
    27    11    36 1   
    28    12    28 1   
    29    12    29 1   
    30    12    37 1   
    31    13    14 2   
    32    16    19 1   
    33    16    22 1   
    34    17    20 2   
    35    17    38 1   
    36    19    39 1   
    37    20    21 1   
    38    20    23 1   
    39    21    40 1   
    40    21    50 1   
    41    22    23 2   
    42    22    41 1   
    43    23    42 1   
    44    24    50 2   
    45    25    26 ar  
    46    25    43 1   
    47    26    27 ar  
    48    26    44 1   
    49    27    45 1   
    50    28    29 1   
    51    28    46 1   
    52    28    47 1   
    53    29    48 1   
    54    29    49 1   
@<TRIPOS>SUBSTRUCTURE
     1 JIC         1 TEMP              0 ****  ****    0 ROOT
