@<TRIPOS>MOLECULE
JIE
   57    59     1     0     0
SMALL
No Charge or Current Charge


@<TRIPOS>ATOM
      1 N           -1.2900    -4.0290   -28.2530 n8         1 JIE      -1.039200
      2 CA          -2.7630    -3.6860   -28.2190 c3         1 JIE       0.112500
      3 C           -3.7490    -4.8240   -27.7670 c          1 JIE       0.582100
      4 O           -4.7800    -4.5790   -27.1610 o          1 JIE      -0.530100
      5 CB          -3.2260    -3.1100   -29.5880 c3         1 JIE      -0.065400
      6 CG          -2.5300    -1.7990   -30.0550 c3         1 JIE      -0.052700
      7 CD1         -2.7630    -0.6150   -29.0840 c3         1 JIE      -0.089600
      8 CD2         -2.9740    -1.4230   -31.4870 c3         1 JIE      -0.089600
      9 C1          -8.2740    -5.9400   -30.0030 c5         1 JIE       0.285300
     10 C2         -12.4100    -7.3190   -28.6350 ca         1 JIE       0.398900
     11 C7          -7.1470    -4.8470   -30.0900 c5         1 JIE       0.097300
     12 C3         -11.2070    -6.9130   -29.2530 ca         1 JIE      -0.226000
     13 C9          -6.3870    -5.3220   -31.3580 c5         1 JIE       0.157300
     14 C4         -10.1210    -6.6340   -28.4130 ca         1 JIE      -0.005200
     15 C10         -6.4340    -6.8770   -31.1780 c5         1 JIE       0.168300
     16 C5         -10.2370    -6.7540   -27.0650 ca         1 JIE      -0.052600
     17 C11         -5.2840    -7.4700   -30.3070 c3         1 JIE       0.190600
     18 C6         -11.4870    -7.1600   -26.5380 ca         1 JIE       0.667900
     19 C8          -8.1980    -6.1350   -27.4480 cc         1 JIE       0.408700
     20 N1         -12.5550    -7.4450   -27.2870 nb         1 JIE      -0.778000
     21 N3S         -3.3640    -6.0940   -28.0740 ns         1 JIE      -0.629300
     22 N7          -9.0280    -6.4420   -26.4260 nd         1 JIE      -0.551100
     23 N9          -8.8460    -6.2370   -28.6880 na         1 JIE      -0.192600
     24 O1S         -4.7860    -7.5330   -26.5280 o          1 JIE      -0.530000
     25 O2          -7.6450    -3.5020   -30.2710 oh         1 JIE      -0.712000
     26 O2S         -3.4570    -8.5910   -28.4400 o          1 JIE      -0.530000
     27 O3          -7.0820    -4.8610   -32.5240 oh         1 JIE      -0.719000
     28 O4          -7.7320    -7.1540   -30.5800 os         1 JIE      -0.446000
     29 O5          -5.4640    -7.1080   -28.9230 os         1 JIE      -0.579700
     30 S           -4.2470    -7.4860   -27.8890 s6         1 JIE       1.438500
     31 H1          -1.0190    -4.5150   -27.3870 hn         1 JIE       0.421000
     32 H2          -1.0870    -4.7030   -29.0000 hn         1 JIE       0.421000
     33 H4          -2.9000    -2.9050   -27.4580 h1         1 JIE       0.097700
     34 H5          -4.3070    -2.9250   -29.5410 hc         1 JIE       0.047700
     35 H6          -3.0860    -3.8830   -30.3540 hc         1 JIE       0.047700
     36 H7          -1.4480    -1.9820   -30.0960 hc         1 JIE       0.058700
     37 H8          -2.3250    -0.8160   -28.1000 hc         1 JIE       0.034700
     38 H9          -2.2960     0.2990   -29.4710 hc         1 JIE       0.034700
     39 H10         -3.8350    -0.4220   -28.9540 hc         1 JIE       0.034700
     40 H11         -2.4440    -0.5280   -31.8370 hc         1 JIE       0.034700
     41 H12         -2.7550    -2.2380   -32.1890 hc         1 JIE       0.034700
     42 H13         -4.0510    -1.2190   -31.5220 hc         1 JIE       0.034700
     43 H14         -9.1170    -5.6140   -30.6240 h2         1 JIE       0.093700
     44 H15        -13.2870    -7.5520   -29.2380 h4         1 JIE       0.014100
     45 H16         -6.4800    -4.8910   -29.2200 h1         1 JIE       0.077700
     46 H17        -11.1370    -6.8320   -30.3330 ha         1 JIE       0.129000
     47 H18         -5.3520    -4.9500   -31.3610 h1         1 JIE       0.070700
     48 H19         -6.3850    -7.3710   -32.1570 h1         1 JIE       0.093700
     49 H20         -5.2910    -8.5620   -30.4230 h1         1 JIE       0.064700
     50 H21         -4.3270    -7.0970   -30.6970 h1         1 JIE       0.064700
     51 H22         -7.1610    -5.8400   -27.3530 h5         1 JIE       0.071800
     52 H23         -2.5170    -6.2630   -28.5850 hn         1 JIE       0.342500
     53 H24        -12.5480    -7.9140   -25.0390 hn         1 JIE       0.483500
     54 H25        -10.9370    -7.4490   -24.6360 hn         1 JIE       0.483500
     55 H26         -7.9490    -3.1680   -29.3910 ho         1 JIE       0.530000
     56 H27         -7.5210    -4.0330   -32.2020 ho         1 JIE       0.533000
     57 N6         -11.7450    -7.3310   -25.2350 nv         1 JIE      -1.045900
@<TRIPOS>BOND
     1     1     2 1   
     2     1    31 1   
     3     1    32 1   
     4     2     3 1   
     5     2     5 1   
     6     2    33 1   
     7     3     4 2   
     8     3    21 1   
     9     5     6 1   
    10     5    34 1   
    11     5    35 1   
    12     6     7 1   
    13     6     8 1   
    14     6    36 1   
    15     7    37 1   
    16     7    38 1   
    17     7    39 1   
    18     8    40 1   
    19     8    41 1   
    20     8    42 1   
    21     9    11 1   
    22     9    23 1   
    23     9    28 1   
    24     9    43 1   
    25    10    12 ar  
    26    10    20 ar  
    27    10    44 1   
    28    11    13 1   
    29    11    25 1   
    30    11    45 1   
    31    12    14 ar  
    32    12    46 1   
    33    13    15 1   
    34    13    27 1   
    35    13    47 1   
    36    14    16 ar  
    37    14    23 1   
    38    15    17 1   
    39    15    28 1   
    40    15    48 1   
    41    16    18 ar  
    42    16    22 1   
    43    17    29 1   
    44    17    49 1   
    45    17    50 1   
    46    18    20 ar  
    47    18    57 1   
    48    19    22 2   
    49    19    23 1   
    50    19    51 1   
    51    21    30 1   
    52    21    52 1   
    53    24    30 2   
    54    25    55 1   
    55    26    30 2   
    56    27    56 1   
    57    29    30 1   
    58    53    57 1   
    59    54    57 1   
@<TRIPOS>SUBSTRUCTURE
     1 JIE         1 TEMP              0 ****  ****    0 ROOT
