@<TRIPOS>MOLECULE
JIE
   57    59     1     0     0
SMALL
abcg2


@<TRIPOS>ATOM
      1 N           -0.9400    -4.2450   -28.4780 n8         1 JIE      -1.039200
      2 CA          -2.0230    -3.3010   -28.5410 c3         1 JIE       0.112500
      3 C           -3.4240    -3.7970   -28.1630 c          1 JIE       0.582100
      4 O           -4.3730    -3.0570   -28.0540 o          1 JIE      -0.530100
      5 CB          -2.1110    -2.6670   -29.9350 c3         1 JIE      -0.065400
      6 CG          -0.8260    -1.9910   -30.4150 c3         1 JIE      -0.052700
      7 CD1         -0.3490    -0.9100   -29.4510 c3         1 JIE      -0.089600
      8 CD2         -1.0510    -1.4090   -31.8070 c3         1 JIE      -0.089600
      9 C1          -9.1140    -6.2530   -29.8160 c5         1 JIE       0.285300
     10 C2         -12.7140    -8.7620   -28.7080 ca         1 JIE       0.398900
     11 C7          -8.6960    -4.7760   -29.7990 c5         1 JIE       0.097300
     12 C3         -11.7380    -7.9930   -29.3020 ca         1 JIE      -0.226000
     13 C9          -7.6460    -4.7520   -30.9090 c5         1 JIE       0.157300
     14 C4         -10.7620    -7.5210   -28.4200 ca         1 JIE      -0.005200
     15 C10         -7.0020    -6.1360   -30.7840 c5         1 JIE       0.168300
     16 C5         -10.8050    -7.8210   -27.0630 ca         1 JIE      -0.052600
     17 C11         -5.6970    -6.1850   -30.0240 c3         1 JIE       0.190600
     18 C6         -11.8580    -8.6180   -26.5710 ca         1 JIE       0.667900
     19 C8          -9.0720    -6.6390   -27.3310 cc         1 JIE       0.408700
     20 N1         -12.7840    -9.0710   -27.4030 nb         1 JIE      -0.778000
     21 N3S         -3.5360    -5.1570   -27.9610 ns         1 JIE      -0.629300
     22 N7          -9.7370    -7.2580   -26.4070 nd         1 JIE      -0.551100
     23 N9          -9.6430    -6.7450   -28.5740 na         1 JIE      -0.192600
     24 O1S         -5.5520    -5.2520   -26.3970 o          1 JIE      -0.530000
     25 O2          -9.7420    -3.8970   -30.0770 oh         1 JIE      -0.712000
     26 O2S         -4.6130    -7.3190   -27.4590 o          1 JIE      -0.530000
     27 O3          -8.2460    -4.6830   -32.1770 oh         1 JIE      -0.719000
     28 O4          -7.9580    -6.9760   -30.1480 os         1 JIE      -0.446000
     29 O5          -5.9230    -5.6160   -28.7210 os         1 JIE      -0.579700
     30 S           -4.9410    -5.9170   -27.5140 s6         1 JIE       1.438500
     31 H1          -0.8080    -4.6560   -27.5650 hn         1 JIE       0.421000
     32 H2          -0.9960    -4.9730   -29.1790 hn         1 JIE       0.421000
     33 H4          -1.8210    -2.5110   -27.8100 h1         1 JIE       0.097700
     34 H5          -2.9200    -1.9310   -29.9370 hc         1 JIE       0.047700
     35 H6          -2.3970    -3.4430   -30.6550 hc         1 JIE       0.047700
     36 H7          -0.0430    -2.7510   -30.4920 hc         1 JIE       0.058700
     37 H8          -0.0740    -1.3170   -28.4780 hc         1 JIE       0.034700
     38 H9           0.5290    -0.3980   -29.8470 hc         1 JIE       0.034700
     39 H10         -1.1260    -0.1580   -29.2920 hc         1 JIE       0.034700
     40 H11         -0.1340    -0.9690   -32.2020 hc         1 JIE       0.034700
     41 H12         -1.3820    -2.1730   -32.5130 hc         1 JIE       0.034700
     42 H13         -1.8110    -0.6240   -31.7870 hc         1 JIE       0.034700
     43 H14         -9.8980    -6.3930   -30.5690 h2         1 JIE       0.093700
     44 H15        -13.5080    -9.1710   -29.3220 h4         1 JIE       0.014100
     45 H16         -8.2100    -4.5310   -28.8490 h1         1 JIE       0.077700
     46 H17        -11.7460    -7.7880   -30.3630 ha         1 JIE       0.129000
     47 H18         -6.9190    -3.9450   -30.7610 h1         1 JIE       0.070700
     48 H19         -6.7800    -6.5200   -31.7850 h1         1 JIE       0.093700
     49 H20         -5.3560    -7.2180   -29.9380 h1         1 JIE       0.064700
     50 H21         -4.9360    -5.6030   -30.5490 h1         1 JIE       0.064700
     51 H22         -8.1600    -6.0880   -27.1640 h5         1 JIE       0.071800
     52 H23         -2.7260    -5.7570   -28.0730 hn         1 JIE       0.342500
     53 H24        -12.5700    -9.6610   -24.9900 hn         1 JIE       0.483500
     54 H25        -11.1420    -8.7970   -24.6760 hn         1 JIE       0.483500
     55 H26        -10.2230    -3.7100   -29.2650 ho         1 JIE       0.530000
     56 H27         -8.7800    -3.8820   -32.2190 ho         1 JIE       0.533000
     57 N6         -11.9630    -8.9000   -25.2480 nv         1 JIE      -1.045900
@<TRIPOS>BOND
     1     1     2 1   
     2     1    31 1   
     3     1    32 1   
     4     2     3 1   
     5     2     5 1   
     6     2    33 1   
     7     3     4 2   
     8     3    21 1   
     9     5     6 1   
    10     5    34 1   
    11     5    35 1   
    12     6     7 1   
    13     6     8 1   
    14     6    36 1   
    15     7    37 1   
    16     7    38 1   
    17     7    39 1   
    18     8    40 1   
    19     8    41 1   
    20     8    42 1   
    21     9    11 1   
    22     9    23 1   
    23     9    28 1   
    24     9    43 1   
    25    10    12 ar  
    26    10    20 ar  
    27    10    44 1   
    28    11    13 1   
    29    11    25 1   
    30    11    45 1   
    31    12    14 ar  
    32    12    46 1   
    33    13    15 1   
    34    13    27 1   
    35    13    47 1   
    36    14    16 ar  
    37    14    23 1   
    38    15    17 1   
    39    15    28 1   
    40    15    48 1   
    41    16    18 ar  
    42    16    22 1   
    43    17    29 1   
    44    17    49 1   
    45    17    50 1   
    46    18    20 ar  
    47    18    57 1   
    48    19    22 2   
    49    19    23 1   
    50    19    51 1   
    51    21    30 1   
    52    21    52 1   
    53    24    30 2   
    54    25    55 1   
    55    26    30 2   
    56    27    56 1   
    57    29    30 1   
    58    53    57 1   
    59    54    57 1   
@<TRIPOS>SUBSTRUCTURE
     1 JIE         1 TEMP              0 ****  ****    0 ROOT
