@<TRIPOS>MOLECULE
JIF
   13    13     1     0     0
SMALL
No Charge or Current Charge


@<TRIPOS>ATOM
      1 C1           1.7600     0.1320    -0.1350 ca         1 JIF       0.186100
      2 C2           1.0030     1.3100    -0.0730 ca         1 JIF      -0.221500
      3 C3          -0.3970     1.2420    -0.0020 ca         1 JIF       0.204000
      4 C4          -1.0470    -0.0050     0.0080 ca         1 JIF       0.045000
      5 C5          -0.2810    -1.1840    -0.0530 ca         1 JIF       0.204000
      6 F2          -1.1170     2.3860     0.0560 f          1 JIF      -0.152000
      7 O            3.1160     0.2120    -0.2030 oh         1 JIF      -0.520100
      8 F1          -2.3990    -0.0710     0.0770 f          1 JIF      -0.144000
      9 F           -0.8890    -2.3920    -0.0440 f          1 JIF      -0.152000
     10 C            1.1210    -1.1170    -0.1250 ca         1 JIF      -0.221500
     11 H1           1.4990     2.2770    -0.0810 ha         1 JIF       0.148500
     12 H2           3.4810    -0.6980    -0.2390 ho         1 JIF       0.475000
     13 H3           1.6960    -2.0380    -0.1720 ha         1 JIF       0.148500
@<TRIPOS>BOND
     1     1     2 ar  
     2     1     7 1   
     3     1    10 ar  
     4     2     3 ar  
     5     2    11 1   
     6     3     4 ar  
     7     3     6 1   
     8     4     5 ar  
     9     4     8 1   
    10     5     9 1   
    11     5    10 ar  
    12     7    12 1   
    13    10    13 1   
@<TRIPOS>SUBSTRUCTURE
     1 JIF         1 TEMP              0 ****  ****    0 ROOT
