@<TRIPOS>MOLECULE
JIF
   13    13     1     0     0
SMALL
bcc


@<TRIPOS>ATOM
      1 C1           1.7460     0.1130    -0.1350 ca         1 JIF       0.186100
      2 C2           1.0040     1.2910    -0.0760 ca         1 JIF      -0.239500
      3 C3          -0.3700     1.2100    -0.0050 ca         1 JIF       0.168900
      4 C4          -1.0310    -0.0060     0.0070 ca         1 JIF       0.009900
      5 C5          -0.2730    -1.1590    -0.0540 ca         1 JIF       0.168900
      6 F2          -1.0980     2.3250     0.0560 f          1 JIF      -0.116900
      7 O            3.0810     0.2290    -0.2000 oh         1 JIF      -0.481100
      8 F1          -2.3640    -0.0620     0.0800 f          1 JIF      -0.108900
      9 F           -0.9040    -2.3340    -0.0430 f          1 JIF      -0.116900
     10 C            1.1040    -1.1230    -0.1260 ca         1 JIF      -0.239500
     11 H1           1.4900     2.2580    -0.0840 ha         1 JIF       0.166500
     12 H2           3.5000    -0.6380    -0.2320 ho         1 JIF       0.436000
     13 H3           1.6610    -2.0510    -0.1740 ha         1 JIF       0.166500
@<TRIPOS>BOND
     1     1     2 ar  
     2     1     7 1   
     3     1    10 ar  
     4     2     3 ar  
     5     2    11 1   
     6     3     4 ar  
     7     3     6 1   
     8     4     5 ar  
     9     4     8 1   
    10     5     9 1   
    11     5    10 ar  
    12     7    12 1   
    13    10    13 1   
@<TRIPOS>SUBSTRUCTURE
     1 JIF         1 TEMP              0 ****  ****    0 ROOT
