@<TRIPOS>MOLECULE
JIG
   43    46     1     0     0
SMALL
No Charge or Current Charge


@<TRIPOS>ATOM
      1 C1          94.4980   -12.5880     9.3070 ca         1 JIG      -0.073200
      2 C2          93.9970   -12.9140     8.0330 ca         1 JIG       0.289000
      3 C3          95.7590   -12.9310     9.7250 ca         1 JIG       0.058400
      4 N4          93.8740   -11.9080    10.3230 na         1 JIG      -0.260600
      5 C5          94.8690   -13.6320     7.1700 ca         1 JIG      -0.062000
      6 N6          92.7430   -12.5560     7.6610 nb         1 JIG      -0.671000
      7 N7          96.0130   -12.4950    11.0170 nc         1 JIG      -0.525100
      8 C8          96.6250   -13.6380     8.8800 ca         1 JIG      -0.033000
      9 C9          94.8530   -11.8940    11.3180 cd         1 JIG       0.382700
     10 C10         96.1730   -13.9910     7.5920 ca         1 JIG      -0.125000
     11 C11         94.4180   -13.9840     5.8850 ca         1 JIG      -0.060000
     12 C12         92.3190   -12.8990     6.4220 ca         1 JIG       0.348900
     13 S13         94.5620   -11.1200    12.8820 ss         1 JIG      -0.209200
     14 C14         93.1190   -13.6070     5.5110 ca         1 JIG      -0.165000
     15 C15         92.8480   -10.4240    12.7510 c3         1 JIG      -0.006700
     16 C16         92.4320    -9.7070    14.0340 ca         1 JIG       0.345300
     17 C17         92.7750    -8.3550    14.2930 ca         1 JIG      -0.113300
     18 N18         91.7090   -10.4590    14.8960 nb         1 JIG      -0.660000
     19 C19         92.3190    -7.7830    15.5020 ca         1 JIG       0.129100
     20 C20         93.6100    -7.5410    13.2980 c3         1 JIG      -0.052800
     21 C21         91.3020    -9.8990    16.0540 ca         1 JIG       0.340900
     22 C22         91.5800    -8.5680    16.4060 ca         1 JIG      -0.128300
     23 O23         92.5940    -6.4720    15.8140 os         1 JIG      -0.360100
     24 C24         91.0820    -7.9980    17.7310 c3         1 JIG      -0.037800
     25 C25         91.7760    -5.4340    15.2510 c3         1 JIG       0.149900
     26 H1          92.9410   -11.5230    10.3440 hn         1 JIG       0.377000
     27 H3          97.6240   -13.9090     9.2130 ha         1 JIG       0.133000
     28 H4          96.8330   -14.5400     6.9240 ha         1 JIG       0.118000
     29 H5          95.0560   -14.5330     5.1960 ha         1 JIG       0.121000
     30 H6          91.3080   -12.5970     6.1540 h4         1 JIG       0.019100
     31 H7          92.7300   -13.8580     4.5280 ha         1 JIG       0.125000
     32 H8          92.8000    -9.7260    11.9060 h1         1 JIG       0.079200
     33 H9          92.1480   -11.2450    12.5530 h1         1 JIG       0.079200
     34 H10         92.9920    -7.1870    12.4650 hc         1 JIG       0.055033
     35 H11         94.0730    -6.6630    13.7630 hc         1 JIG       0.055033
     36 H12         94.4320    -8.1310    12.8780 hc         1 JIG       0.055033
     37 H13         90.7270   -10.5420    16.7200 h4         1 JIG       0.023100
     38 H14         90.3300    -7.2180    17.5640 hc         1 JIG       0.048033
     39 H15         90.6240    -8.7710    18.3590 hc         1 JIG       0.048033
     40 H16         91.9050    -7.5540    18.3040 hc         1 JIG       0.048033
     41 H17         92.1190    -4.4490    15.5930 h1         1 JIG       0.038700
     42 H18         91.8200    -5.4500    14.1550 h1         1 JIG       0.038700
     43 H19         90.7290    -5.5580    15.5570 h1         1 JIG       0.038700
@<TRIPOS>BOND
     1     1     2 ar  
     2     1     3 ar  
     3     1     4 1   
     4     2     5 ar  
     5     2     6 ar  
     6     3     7 1   
     7     3     8 ar  
     8     4     9 1   
     9     4    26 1   
    10     5    10 ar  
    11     5    11 ar  
    12     6    12 ar  
    13     7     9 2   
    14     8    10 ar  
    15     8    27 1   
    16     9    13 1   
    17    10    28 1   
    18    11    14 ar  
    19    11    29 1   
    20    12    14 ar  
    21    12    30 1   
    22    13    15 1   
    23    14    31 1   
    24    15    16 1   
    25    15    32 1   
    26    15    33 1   
    27    16    17 ar  
    28    16    18 ar  
    29    17    19 ar  
    30    17    20 1   
    31    18    21 ar  
    32    19    22 ar  
    33    19    23 1   
    34    20    34 1   
    35    20    35 1   
    36    20    36 1   
    37    21    22 ar  
    38    21    37 1   
    39    22    24 1   
    40    23    25 1   
    41    24    38 1   
    42    24    39 1   
    43    24    40 1   
    44    25    41 1   
    45    25    42 1   
    46    25    43 1   
@<TRIPOS>SUBSTRUCTURE
     1 JIG         1 TEMP              0 ****  ****    0 ROOT
