@<TRIPOS>MOLECULE
JIG
   43    46     1     0     0
SMALL
bcc


@<TRIPOS>ATOM
      1 C1          94.2530   -12.7160     9.3270 ca         1 JIG      -0.138500
      2 C2          93.8480   -13.2510     8.0850 ca         1 JIG       0.419600
      3 C3          95.5730   -12.3920     9.6170 ca         1 JIG       0.058400
      4 N4          93.5480   -12.3970    10.4470 na         1 JIG      -0.210300
      5 C5          94.8820   -13.4480     7.1350 ca         1 JIG      -0.127300
      6 N6          92.5550   -13.5430     7.8540 nb         1 JIG      -0.671000
      7 N7          95.6600   -11.8700    10.8800 nc         1 JIG      -0.525100
      8 C8          96.5890   -12.5980     8.6560 ca         1 JIG      -0.051000
      9 C9          94.4370   -11.8900    11.3410 cd         1 JIG       0.382700
     10 C10         96.2350   -13.1150     7.4440 ca         1 JIG      -0.143000
     11 C11         94.4980   -13.9800     5.8900 ca         1 JIG      -0.078000
     12 C12         92.2430   -14.0360     6.6800 ca         1 JIG       0.414200
     13 S13         93.9880   -11.3810    12.9490 ss         1 JIG      -0.161300
     14 C14         93.1790   -14.2750     5.6590 ca         1 JIG      -0.248300
     15 C15         92.6560   -10.1730    12.5670 c3         1 JIG      -0.054600
     16 C16         92.2420    -9.5280    13.8570 ca         1 JIG       0.410600
     17 C17         92.8880    -8.3830    14.3320 ca         1 JIG      -0.178600
     18 N18         91.2450   -10.1230    14.4990 nb         1 JIG      -0.660000
     19 C19         92.4120    -7.8490    15.5300 ca         1 JIG       0.129100
     20 C20         94.0400    -7.7670    13.5940 c3         1 JIG      -0.052800
     21 C21         90.8330    -9.6080    15.6470 ca         1 JIG       0.406200
     22 C22         91.3680    -8.4630    16.2210 ca         1 JIG      -0.193600
     23 O23         92.9760    -6.7340    16.0590 os         1 JIG      -0.336900
     24 C24         90.8600    -7.9280    17.5230 c3         1 JIG      -0.037800
     25 C25         92.4680    -5.5150    15.5260 c3         1 JIG       0.126700
     26 H1          92.5590   -12.5380    10.5900 hn         1 JIG       0.326700
     27 H3          97.6160   -12.3450     8.8810 ha         1 JIG       0.151000
     28 H4          96.9880   -13.2830     6.6840 ha         1 JIG       0.136000
     29 H5          95.2470   -14.1520     5.1270 ha         1 JIG       0.139000
     30 H6          91.1960   -14.2640     6.5120 h4         1 JIG       0.019100
     31 H7          92.8520   -14.6850     4.7140 ha         1 JIG       0.143000
     32 H8          93.0380    -9.4540    11.8440 h1         1 JIG       0.079200
     33 H9          91.8060   -10.7000    12.1390 h1         1 JIG       0.079200
     34 H10         93.7040    -7.2400    12.6990 hc         1 JIG       0.055033
     35 H11         94.5790    -7.0550    14.2130 hc         1 JIG       0.055033
     36 H12         94.7520    -8.5280    13.2730 hc         1 JIG       0.055033
     37 H13         90.0200   -10.1260    16.1460 h4         1 JIG       0.023100
     38 H14         90.4550    -6.9200    17.4170 hc         1 JIG       0.048033
     39 H15         90.0670    -8.5630    17.9150 hc         1 JIG       0.048033
     40 H16         91.6520    -7.8790    18.2710 hc         1 JIG       0.048033
     41 H17         92.9830    -4.7040    16.0360 h1         1 JIG       0.038700
     42 H18         92.6560    -5.4320    14.4530 h1         1 JIG       0.038700
     43 H19         91.3940    -5.4190    15.7010 h1         1 JIG       0.038700
@<TRIPOS>BOND
     1     1     2 ar  
     2     1     3 ar  
     3     1     4 1   
     4     2     5 ar  
     5     2     6 ar  
     6     3     7 1   
     7     3     8 ar  
     8     4     9 1   
     9     4    26 1   
    10     5    10 ar  
    11     5    11 ar  
    12     6    12 ar  
    13     7     9 2   
    14     8    10 ar  
    15     8    27 1   
    16     9    13 1   
    17    10    28 1   
    18    11    14 ar  
    19    11    29 1   
    20    12    14 ar  
    21    12    30 1   
    22    13    15 1   
    23    14    31 1   
    24    15    16 1   
    25    15    32 1   
    26    15    33 1   
    27    16    17 ar  
    28    16    18 ar  
    29    17    19 ar  
    30    17    20 1   
    31    18    21 ar  
    32    19    22 ar  
    33    19    23 1   
    34    20    34 1   
    35    20    35 1   
    36    20    36 1   
    37    21    22 ar  
    38    21    37 1   
    39    22    24 1   
    40    23    25 1   
    41    24    38 1   
    42    24    39 1   
    43    24    40 1   
    44    25    41 1   
    45    25    42 1   
    46    25    43 1   
@<TRIPOS>SUBSTRUCTURE
     1 JIG         1 TEMP              0 ****  ****    0 ROOT
