@<TRIPOS>MOLECULE
JII
   35    37     1     0     0
SMALL
No Charge or Current Charge


@<TRIPOS>ATOM
      1 C10        -23.6990    30.4250   -22.6440 c3         1 JII       0.137900
      2 C13        -26.6350    32.5910   -23.8320 ca         1 JII      -0.078000
      3 C15        -24.9120    32.6520   -25.5520 ca         1 JII       0.134100
      4 C17        -23.2420    32.7730   -27.3680 c3         1 JII       0.148900
      5 C02        -25.2190    26.7920   -24.6450 ca         1 JII       0.284000
      6 C04        -23.0550    26.4350   -25.3120 ca         1 JII       0.456900
      7 C06        -22.3360    24.4430   -26.7720 c3         1 JII       0.223100
      8 C07        -22.6820    27.6060   -24.6190 ca         1 JII      -0.103600
      9 C08        -23.6600    28.3100   -23.9610 ca         1 JII       0.137500
     10 C11        -24.5600    31.3460   -23.5090 ca         1 JII      -0.084300
     11 C12        -25.8300    31.7480   -23.0490 ca         1 JII      -0.109000
     12 C14        -26.1760    33.0400   -25.0810 ca         1 JII      -0.128000
     13 C18        -24.1020    31.8060   -24.7620 ca         1 JII      -0.179000
     14 C19        -21.6540    29.2860   -23.7330 cc         1 JII       0.401700
     15 N03        -24.3380    26.0230   -25.3260 nb         1 JII      -0.284000
     16 N05        -22.1120    25.6780   -25.9980 nu         1 JII      -0.910100
     17 N09        -23.0070    29.3690   -23.4010 na         1 JII      -0.280300
     18 N20        -21.4150    28.1960   -24.4890 nd         1 JII      -0.551100
     19 N21        -24.9490    27.9250   -23.9550 nb         1 JII      -0.200000
     20 Cl01       -26.8930    26.2630   -24.6600 cl         1 JII      -0.149000
     21 H102       -24.3240    29.9460   -21.8780 h1         1 JII       0.070700
     22 H101       -22.9490    31.0310   -22.1200 h1         1 JII       0.070700
     23 H131       -27.6150    32.8960   -23.4710 ha         1 JII       0.120000
     24 H173       -23.1290    33.2490   -28.3500 h1         1 JII       0.042367
     25 H171       -22.4150    33.1090   -26.7300 h1         1 JII       0.042367
     26 H172       -23.1620    31.6870   -27.5060 h1         1 JII       0.042367
     27 H062       -21.3920    24.0790   -27.1990 h1         1 JII       0.048033
     28 H063       -22.7510    23.6550   -26.1300 h1         1 JII       0.048033
     29 H061       -23.0400    24.6270   -27.5960 h1         1 JII       0.048033
     30 H121       -26.1960    31.4050   -22.0840 ha         1 JII       0.124000
     31 H141       -26.8000    33.6910   -25.6870 ha         1 JII       0.129000
     32 H181       -23.1200    31.4990   -25.1090 ha         1 JII       0.113000
     33 H191       -20.9270    30.0230   -23.4130 h5         1 JII       0.065800
     34 H051       -21.1610    26.0530   -25.9450 hn         1 JII       0.516000
     35 O16        -24.5110    33.1230   -26.7870 os         1 JII      -0.349100
@<TRIPOS>BOND
     1     1    10 1   
     2     1    17 1   
     3     1    21 1   
     4     1    22 1   
     5     2    11 ar  
     6     2    12 ar  
     7     2    23 1   
     8     3    12 ar  
     9     3    13 ar  
    10     3    35 1   
    11     4    24 1   
    12     4    25 1   
    13     4    26 1   
    14     4    35 1   
    15     5    15 ar  
    16     5    19 ar  
    17     5    20 1   
    18     6     8 ar  
    19     6    15 ar  
    20     6    16 1   
    21     7    16 1   
    22     7    27 1   
    23     7    28 1   
    24     7    29 1   
    25     8     9 ar  
    26     8    18 1   
    27     9    17 1   
    28     9    19 ar  
    29    10    11 ar  
    30    10    13 ar  
    31    11    30 1   
    32    12    31 1   
    33    13    32 1   
    34    14    17 1   
    35    14    18 2   
    36    14    33 1   
    37    16    34 1   
@<TRIPOS>SUBSTRUCTURE
     1 JII         1 TEMP              0 ****  ****    0 ROOT
