@<TRIPOS>MOLECULE
JII
   35    37     1     0     0
SMALL
abcg2


@<TRIPOS>ATOM
      1 C10        -23.5840    30.4870   -22.8210 c3         1 JII       0.137900
      2 C13        -26.7160    32.1380   -24.1930 ca         1 JII      -0.078000
      3 C15        -24.8470    32.7750   -25.5720 ca         1 JII       0.134100
      4 C17        -23.0540    33.4460   -27.0080 c3         1 JII       0.148900
      5 C02        -25.1020    26.6690   -24.2850 ca         1 JII       0.284000
      6 C04        -23.0580    26.2980   -25.2610 ca         1 JII       0.456900
      7 C06        -22.6440    24.2500   -26.5630 c3         1 JII       0.223100
      8 C07        -22.6510    27.5380   -24.7190 ca         1 JII      -0.103600
      9 C08        -23.6000    28.2360   -23.9780 ca         1 JII       0.137500
     10 C11        -24.5140    31.3170   -23.6750 ca         1 JII      -0.084300
     11 C12        -25.8710    31.3740   -23.3880 ca         1 JII      -0.109000
     12 C14        -26.2140    32.8330   -25.2800 ca         1 JII      -0.128000
     13 C18        -23.9980    32.0200   -24.7670 ca         1 JII      -0.179000
     14 C19        -21.7030    29.3330   -24.0760 cc         1 JII       0.401700
     15 N03        -24.3220    25.8890   -25.0160 nb         1 JII      -0.284000
     16 N05        -22.2520    25.5300   -25.9990 nu         1 JII      -0.910100
     17 N09        -22.9780    29.3870   -23.5680 na         1 JII      -0.280300
     18 N20        -21.4640    28.2430   -24.7680 nd         1 JII      -0.551100
     19 N21        -24.8590    27.8360   -23.7270 nb         1 JII      -0.200000
     20 CL01       -26.7270    26.0400   -24.0210 cl         1 JII      -0.149000
     21 H102       -24.1220    30.0680   -21.9720 h1         1 JII       0.070700
     22 H101       -22.7630    31.0930   -22.4370 h1         1 JII       0.070700
     23 H131       -27.7740    32.1860   -23.9720 ha         1 JII       0.120000
     24 H173       -22.9550    34.0580   -27.9010 h1         1 JII       0.042367
     25 H171       -22.4330    33.8580   -26.2090 h1         1 JII       0.042367
     26 H172       -22.7360    32.4230   -27.2250 h1         1 JII       0.042367
     27 H062       -21.8100    23.8700   -27.1470 h1         1 JII       0.048033
     28 H063       -22.8870    23.5310   -25.7780 h1         1 JII       0.048033
     29 H061       -23.5140    24.3610   -27.2110 h1         1 JII       0.048033
     30 H121       -26.2680    30.8220   -22.5460 ha         1 JII       0.124000
     31 H141       -26.8610    33.4260   -25.9140 ha         1 JII       0.129000
     32 H181       -22.9390    31.9690   -24.9780 ha         1 JII       0.113000
     33 H191       -21.0000    30.1320   -23.8950 h5         1 JII       0.065800
     34 H051       -21.3120    25.8580   -26.1490 hn         1 JII       0.516000
     35 O16        -24.4360    33.4880   -26.6560 os         1 JII      -0.349100
@<TRIPOS>BOND
     1     1    10 1   
     2     1    17 1   
     3     1    21 1   
     4     1    22 1   
     5     2    11 ar  
     6     2    12 ar  
     7     2    23 1   
     8     3    12 ar  
     9     3    13 ar  
    10     3    35 1   
    11     4    24 1   
    12     4    25 1   
    13     4    26 1   
    14     4    35 1   
    15     5    15 ar  
    16     5    19 ar  
    17     5    20 1   
    18     6     8 ar  
    19     6    15 ar  
    20     6    16 1   
    21     7    16 1   
    22     7    27 1   
    23     7    28 1   
    24     7    29 1   
    25     8     9 ar  
    26     8    18 1   
    27     9    17 1   
    28     9    19 ar  
    29    10    11 ar  
    30    10    13 ar  
    31    11    30 1   
    32    12    31 1   
    33    13    32 1   
    34    14    17 1   
    35    14    18 2   
    36    14    33 1   
    37    16    34 1   
@<TRIPOS>SUBSTRUCTURE
     1 JII         1 TEMP              0 ****  ****    0 ROOT
