@<TRIPOS>MOLECULE
JIJ
   26    28     1     0     0
SMALL
No Charge or Current Charge


@<TRIPOS>ATOM
      1 C8          90.8230    -7.5070    15.7500 cc         1 JIJ      -0.204200
      2 C10         89.8610    -8.3290    16.3100 cd         1 JIJ      -0.186100
      3 C13         94.5680    -4.9020    14.6080 c5         1 JIJ      -0.096900
      4 C1          91.6080    -8.3230    14.8600 ca         1 JIJ      -0.253800
      5 C2          92.7060    -8.0400    14.0130 ca         1 JIJ       0.441900
      6 C3          91.0890    -9.5970    14.9010 ca         1 JIJ       0.145500
      7 N4          93.3310    -6.7750    13.8910 nh         1 JIJ      -0.781300
      8 N5          93.2130    -9.0300    13.2460 nb         1 JIJ      -0.309000
      9 N6          91.5970   -10.5860    14.1460 nb         1 JIJ      -0.239000
     10 N7          90.0260    -9.6340    15.7900 na         1 JIJ      -0.317400
     11 C9          92.6370   -10.2490    13.3520 ca         1 JIJ       0.180900
     12 C11         94.2920    -6.4420    12.8020 c5         1 JIJ       0.230300
     13 C12         93.2940    -5.7220    14.9380 c5         1 JIJ       0.230300
     14 C14         94.5540    -4.9380    13.0600 c5         1 JIJ      -0.096900
     15 H1          90.9180    -6.4430    15.9530 ha         1 JIJ       0.200000
     16 H2          89.0770    -8.0840    17.0260 h4         1 JIJ       0.215000
     17 H4          95.4670    -5.3820    15.0130 hc         1 JIJ       0.054950
     18 H5          89.4670   -10.4520    16.0110 hn         1 JIJ       0.360000
     19 H6          93.0540   -11.0410    12.7330 h5         1 JIJ       0.041100
     20 H7          95.2180    -7.0270    12.8970 h1         1 JIJ       0.055200
     21 H8          93.8720    -6.6120    11.8000 h1         1 JIJ       0.055200
     22 H9          92.3920    -5.1010    14.8420 h1         1 JIJ       0.055200
     23 H10         93.3380    -6.1330    15.9560 h1         1 JIJ       0.055200
     24 H11         95.4950    -4.5960    12.6160 hc         1 JIJ       0.054950
     25 H12         93.7490    -4.3160    12.6510 hc         1 JIJ       0.054950
     26 H3          94.5250    -3.8850    15.0130 hc         1 JIJ       0.054950
@<TRIPOS>BOND
     1     1     2 2   
     2     1     4 1   
     3     1    15 1   
     4     2    10 1   
     5     2    16 1   
     6     3    13 1   
     7     3    14 1   
     8     3    17 1   
     9     3    26 1   
    10     4     5 ar  
    11     4     6 ar  
    12     5     7 1   
    13     5     8 ar  
    14     6     9 ar  
    15     6    10 1   
    16     7    12 1   
    17     7    13 1   
    18     8    11 ar  
    19     9    11 ar  
    20    10    18 1   
    21    11    19 1   
    22    12    14 1   
    23    12    20 1   
    24    12    21 1   
    25    13    22 1   
    26    13    23 1   
    27    14    24 1   
    28    14    25 1   
@<TRIPOS>SUBSTRUCTURE
     1 JIJ         1 TEMP              0 ****  ****    0 ROOT
