@<TRIPOS>MOLECULE
JIJ
   26    28     1     0     0
SMALL
abcg2


@<TRIPOS>ATOM
      1 C8          90.9140    -7.5320    15.9340 cc         1 JIJ      -0.204200
      2 C10         89.9900    -8.4130    16.4120 cd         1 JIJ      -0.186100
      3 C13         94.4090    -4.8000    14.5410 c5         1 JIJ      -0.096900
      4 C1          91.6560    -8.2260    14.9240 ca         1 JIJ      -0.253800
      5 C2          92.7130    -7.9700    14.0150 ca         1 JIJ       0.441900
      6 C3          91.1150    -9.5200    14.8470 ca         1 JIJ       0.145500
      7 N4          93.3720    -6.8070    13.9350 nh         1 JIJ      -0.781300
      8 N5          93.0870    -8.9400    13.1680 nb         1 JIJ      -0.309000
      9 N6          91.4970   -10.4940    14.0150 nb         1 JIJ      -0.239000
     10 N7          90.1180    -9.6100    15.7560 na         1 JIJ      -0.317400
     11 C9          92.4740   -10.1170    13.2170 ca         1 JIJ       0.180900
     12 C11         94.3930    -6.5560    12.9240 c5         1 JIJ       0.230300
     13 C12         93.2110    -5.6900    14.8530 c5         1 JIJ       0.230300
     14 C14         94.6590    -5.0620    13.0610 c5         1 JIJ      -0.096900
     15 H1          91.0270    -6.5160    16.2710 ha         1 JIJ       0.200000
     16 H2          89.2410    -8.2800    17.1750 h4         1 JIJ       0.215000
     17 H4          95.2720    -5.1160    15.1300 hc         1 JIJ       0.054950
     18 H5          89.5500   -10.4270    15.9130 hn         1 JIJ       0.360000
     19 H6          92.8290   -10.8580    12.5070 h5         1 JIJ       0.041100
     20 H7          95.2950    -7.1420    13.1290 h1         1 JIJ       0.055200
     21 H8          94.0400    -6.8340    11.9310 h1         1 JIJ       0.055200
     22 H9          92.2690    -5.1630    14.6710 h1         1 JIJ       0.055200
     23 H10         93.2130    -6.0270    15.8910 h1         1 JIJ       0.055200
     24 H11         95.6640    -4.7950    12.7390 hc         1 JIJ       0.054950
     25 H12         93.9520    -4.4960    12.4500 hc         1 JIJ       0.054950
     26 H3          94.2120    -3.7540    14.7700 hc         1 JIJ       0.054950
@<TRIPOS>BOND
     1     1     2 2   
     2     1     4 1   
     3     1    15 1   
     4     2    10 1   
     5     2    16 1   
     6     3    13 1   
     7     3    14 1   
     8     3    17 1   
     9     3    26 1   
    10     4     5 ar  
    11     4     6 ar  
    12     5     7 1   
    13     5     8 ar  
    14     6     9 ar  
    15     6    10 1   
    16     7    12 1   
    17     7    13 1   
    18     8    11 ar  
    19     9    11 ar  
    20    10    18 1   
    21    11    19 1   
    22    12    14 1   
    23    12    20 1   
    24    12    21 1   
    25    13    22 1   
    26    13    23 1   
    27    14    24 1   
    28    14    25 1   
@<TRIPOS>SUBSTRUCTURE
     1 JIJ         1 TEMP              0 ****  ****    0 ROOT
