@<TRIPOS>MOLECULE
JIK
   29    31     1     0     0
SMALL
No Charge or Current Charge


@<TRIPOS>ATOM
      1 C2          -6.5420    -6.1610    10.7770 ca         1 JIK       0.362500
      2 C7          -8.5030    -5.2260    10.2000 cc         1 JIK       0.357800
      3 C8          -6.4060    -3.7600    10.5050 ca         1 JIK       0.002000
      4 C10         -4.5030    -5.1340    11.1240 ca         1 JIK       0.399900
      5 C11         -7.4580    -8.5500    10.8650 c5         1 JIK       0.112300
      6 C14         -8.4080    -9.1440    11.9380 c5         1 JIK      -0.091400
      7 C15         -7.8760    -9.4320     9.6600 c5         1 JIK      -0.091400
      8 C16         -7.8120   -10.8630    10.2670 c5         1 JIK      -0.080400
      9 N1          -7.5630    -7.0960    10.6570 na         1 JIK      -0.043100
     10 N3          -8.7940    -6.5280    10.2970 nd         1 JIK      -0.558100
     11 C4          -7.1210    -4.9610    10.4890 ca         1 JIK      -0.285900
     12 N5          -5.2370    -6.2800    11.0970 nb         1 JIK      -0.731000
     13 C6          -5.0370    -3.8580    10.8370 ca         1 JIK      -0.221600
     14 O12         -2.9750    -2.8020    11.1850 o          1 JIK      -0.718000
     15 O13         -4.6420    -1.5610    10.6380 o          1 JIK      -0.718000
     16 C17         -8.1660   -10.6720    11.7780 c5         1 JIK      -0.080400
     17 H1          -9.3080    -4.5560     9.9270 h4         1 JIK       0.034800
     18 H2          -6.8830    -2.8090    10.2720 ha         1 JIK       0.138000
     19 H3          -3.4520    -5.2600    11.3850 h4         1 JIK       0.037100
     20 H4          -6.4180    -8.7780    11.1370 h1         1 JIK       0.082700
     21 H5          -8.1700    -8.7890    12.9470 hc         1 JIK       0.055200
     22 H6          -9.4560    -8.8850    11.7430 hc         1 JIK       0.055200
     23 H7          -7.2020    -9.3140     8.8040 hc         1 JIK       0.055200
     24 H8          -8.8880    -9.1930     9.3110 hc         1 JIK       0.055200
     25 H9          -8.5060   -11.5460     9.7640 hc         1 JIK       0.037200
     26 H10         -6.8090   -11.2920    10.1570 hc         1 JIK       0.037200
     27 H12         -9.0460   -11.2530    12.0740 hc         1 JIK       0.037200
     28 H13         -7.3370   -11.0070    12.4130 hc         1 JIK       0.037200
     29 C9          -4.1510    -2.6510    10.8910 c          1 JIK       0.722600
@<TRIPOS>BOND
     1     1     9 1   
     2     1    11 ar  
     3     1    12 ar  
     4     2    10 2   
     5     2    11 1   
     6     2    17 1   
     7     3    11 ar  
     8     3    13 ar  
     9     3    18 1   
    10     4    12 ar  
    11     4    13 ar  
    12     4    19 1   
    13     5     6 1   
    14     5     7 1   
    15     5     9 1   
    16     5    20 1   
    17     6    16 1   
    18     6    21 1   
    19     6    22 1   
    20     7     8 1   
    21     7    23 1   
    22     7    24 1   
    23     8    16 1   
    24     8    25 1   
    25     8    26 1   
    26     9    10 1   
    27    13    29 1   
    28    14    29 1   
    29    15    29 1   
    30    16    27 1   
    31    16    28 1   
@<TRIPOS>SUBSTRUCTURE
     1 JIK         1 TEMP              0 ****  ****    0 ROOT
