@<TRIPOS>MOLECULE
JIK
   29    31     1     0     0
SMALL
bcc


@<TRIPOS>ATOM
      1 C2          -6.5420    -6.1750    10.8010 ca         1 JIK       0.427800
      2 C7          -8.5400    -5.4440    10.1550 cc         1 JIK       0.357800
      3 C8          -6.5120    -3.8020    10.4680 ca         1 JIK      -0.016000
      4 C10         -4.6190    -5.1060    11.1580 ca         1 JIK       0.465200
      5 C11         -7.2130    -8.5970    10.9520 c5         1 JIK       0.083000
      6 C14         -8.1130    -9.1750    12.0500 c5         1 JIK      -0.091400
      7 C15         -7.4440    -9.4910     9.7080 c5         1 JIK      -0.091400
      8 C16         -8.3490   -10.6380    10.1810 c5         1 JIK      -0.080400
      9 N1          -7.4340    -7.1890    10.7080 na         1 JIK      -0.013800
     10 N3          -8.6320    -6.7400    10.3150 nd         1 JIK      -0.558100
     11 C4          -7.2260    -4.9990    10.4480 ca         1 JIK      -0.351200
     12 N5          -5.2620    -6.2590    11.1530 nb         1 JIK      -0.731000
     13 C6          -5.1790    -3.8520    10.8290 ca         1 JIK      -0.286900
     14 O12         -3.1330    -2.7380    11.2000 o          1 JIK      -0.823300
     15 O13         -4.9050    -1.5260    10.5840 o          1 JIK      -0.823300
     16 C17         -8.1810   -10.6560    11.7010 c5         1 JIK      -0.080400
     17 H1          -9.3960    -4.8670     9.8390 h4         1 JIK       0.034800
     18 H2          -6.9770    -2.8590    10.2090 ha         1 JIK       0.156000
     19 H3          -3.5740    -5.1460    11.4410 h4         1 JIK       0.037100
     20 H4          -6.1710    -8.6710    11.2660 h1         1 JIK       0.082700
     21 H5          -7.7280    -8.9700    13.0500 hc         1 JIK       0.055200
     22 H6          -9.1110    -8.7350    11.9790 hc         1 JIK       0.055200
     23 H7          -6.4880    -9.8690     9.3440 hc         1 JIK       0.055200
     24 H8          -7.8930    -8.9260     8.8910 hc         1 JIK       0.055200
     25 H9          -9.3900   -10.4210     9.9340 hc         1 JIK       0.037200
     26 H10         -8.0990   -11.5900     9.7120 hc         1 JIK       0.037200
     27 H12         -8.9880   -11.1780    12.2160 hc         1 JIK       0.037200
     28 H13         -7.2450   -11.1520    11.9740 hc         1 JIK       0.037200
     29 C9          -4.3270    -2.5890    10.8760 c          1 JIK       0.933200
@<TRIPOS>BOND
     1     1     9 1   
     2     1    11 ar  
     3     1    12 ar  
     4     2    10 2   
     5     2    11 1   
     6     2    17 1   
     7     3    11 ar  
     8     3    13 ar  
     9     3    18 1   
    10     4    12 ar  
    11     4    13 ar  
    12     4    19 1   
    13     5     6 1   
    14     5     7 1   
    15     5     9 1   
    16     5    20 1   
    17     6    16 1   
    18     6    21 1   
    19     6    22 1   
    20     7     8 1   
    21     7    23 1   
    22     7    24 1   
    23     8    16 1   
    24     8    25 1   
    25     8    26 1   
    26     9    10 1   
    27    13    29 1   
    28    14    29 1   
    29    15    29 1   
    30    16    27 1   
    31    16    28 1   
@<TRIPOS>SUBSTRUCTURE
     1 JIK         1 TEMP              0 ****  ****    0 ROOT
