@<TRIPOS>MOLECULE
JIL
   64    68     1     0     0
SMALL
No Charge or Current Charge


@<TRIPOS>ATOM
      1 O01          4.2420     3.9010     0.3240 oh         1 JIL      -0.703000
      2 C02          4.6050     2.8510    -0.5790 c5         1 JIL       0.108300
      3 C03          6.0470     2.3570    -0.2340 c5         1 JIL       0.082300
      4 C04          5.7930     1.1470     0.7530 c5         1 JIL       0.316300
      5 O05          4.3590     1.0150     0.8510 os         1 JIL      -0.430000
      6 C06          3.8020     1.5320    -0.3730 c5         1 JIL       0.178300
      7 C07          2.2680     1.6860    -0.2560 c3         1 JIL       0.070600
      8 S08          1.3890     0.0540    -0.1460 ss         1 JIL      -0.409000
      9 C09         -0.3590     0.6450     0.0100 c3         1 JIL       0.049600
     10 C10         -1.3380    -0.5440     0.1160 c3         1 JIL       0.174800
     11 N11         -2.7340    -0.0670     0.2390 n7         1 JIL      -0.880400
     12 C12         -3.7620    -1.1410     0.3000 c3         1 JIL       0.157800
     13 C13         -5.2210    -0.5780     0.3770 c6         1 JIL       0.171500
     14 N14         -5.4950     0.3010    -0.7800 n7         1 JIL      -0.854400
     15 C15         -6.7530     1.0600    -0.6120 c6         1 JIL       0.204100
     16 C16         -7.9350     0.1440    -0.2570 ca         1 JIL      -0.086300
     17 C17         -9.2510     0.6140    -0.4360 ca         1 JIL      -0.044000
     18 C18        -10.3600    -0.1990    -0.1040 ca         1 JIL      -0.180200
     19 N19        -11.7590     0.3060    -0.2970 no         1 JIL       0.694200
     20 O20        -11.9120     1.4470    -0.7520 o          1 JIL      -0.401500
     21 O21        -12.6980    -0.4410     0.0080 o          1 JIL      -0.401500
     22 C22        -10.1300    -1.4950     0.4130 ca         1 JIL      -0.044000
     23 C23         -8.8180    -1.9630     0.5930 ca         1 JIL      -0.127000
     24 C24         -7.7170    -1.1520     0.2660 ca         1 JIL      -0.014300
     25 C25         -6.2940    -1.6920     0.4530 c6         1 JIL      -0.036100
     26 N26          6.3790    -0.1300     0.3400 na         1 JIL      -0.295300
     27 C27          7.6950    -0.4150     0.0880 ca         1 JIL       0.143500
     28 C28          7.7680    -1.7450    -0.2420 ca         1 JIL      -0.102600
     29 N29          6.5260    -2.3700    -0.2080 nc         1 JIL      -0.550100
     30 C30          5.7150    -1.3580     0.1540 cd         1 JIL       0.405700
     31 C31          9.0340    -2.2850    -0.5500 ca         1 JIL       0.449900
     32 N32          9.2110    -3.5910    -0.8850 nv         1 JIL      -1.062900
     33 N33         10.1420    -1.5290    -0.5180 nb         1 JIL      -0.301000
     34 C34          9.9630    -0.2300    -0.1800 ca         1 JIL       0.183900
     35 N35          8.7900     0.3720     0.1270 nb         1 JIL      -0.217000
     36 O36          6.8190     3.4370     0.3390 oh         1 JIL      -0.691000
     37 H011         5.1280     4.1830     0.6710 ho         1 JIL       0.525000
     38 H021         4.5400     3.1990    -1.6200 h1         1 JIL       0.057700
     39 H031         6.5330     1.9920    -1.1500 h1         1 JIL       0.054700
     40 H041         6.2100     1.3620     1.7450 h2         1 JIL       0.129700
     41 H061         4.0180     0.8250    -1.1870 h1         1 JIL       0.055700
     42 H071         2.0340     2.2830     0.6340 h1         1 JIL       0.079700
     43 H072         1.8990     2.2280    -1.1360 h1         1 JIL       0.079700
     44 H091        -0.4450     1.2750     0.9050 h1         1 JIL       0.062200
     45 H092        -0.6130     1.2510    -0.8690 h1         1 JIL       0.062200
     46 H101        -1.2260    -1.1700    -0.7800 h1         1 JIL       0.047200
     47 H102        -1.0620    -1.1550     0.9860 h1         1 JIL       0.047200
     48 H111        -2.8070     0.4930     1.0980 hn         1 JIL       0.407000
     49 H121        -3.6890    -1.7830    -0.5890 h1         1 JIL       0.043700
     50 H122        -3.5940    -1.7780     1.1790 h1         1 JIL       0.043700
     51 H131        -5.2880     0.0280     1.2940 h1         1 JIL       0.023700
     52 H141        -4.7030     0.9530    -0.8610 hn         1 JIL       0.440000
     53 H151        -6.6290     1.8020     0.1910 h1         1 JIL       0.045700
     54 H152        -6.9740     1.6100    -1.5390 h1         1 JIL       0.045700
     55 H171        -9.4010     1.6170    -0.8330 ha         1 JIL       0.149000
     56 H221       -10.9620    -2.1470     0.6770 ha         1 JIL       0.151000
     57 H231        -8.6570    -2.9640     0.9880 ha         1 JIL       0.125000
     58 H251        -6.0990    -2.4430    -0.3240 hc         1 JIL       0.062700
     59 H252        -6.2120    -2.2130     1.4170 hc         1 JIL       0.062700
     60 H301         4.6440    -1.4440     0.2970 h5         1 JIL       0.063800
     61 H321         8.4320    -4.2170    -0.6990 hn         1 JIL       0.505000
     62 H322        10.1440    -3.9860    -0.8010 hn         1 JIL       0.505000
     63 H341        10.8540     0.3950    -0.1510 h5         1 JIL       0.047100
     64 H361         7.7720     3.1800     0.2900 ho         1 JIL       0.516000
@<TRIPOS>BOND
     1     1     2 1   
     2     1    37 1   
     3     2     3 1   
     4     2     6 1   
     5     2    38 1   
     6     3     4 1   
     7     3    36 1   
     8     3    39 1   
     9     4     5 1   
    10     4    26 1   
    11     4    40 1   
    12     5     6 1   
    13     6     7 1   
    14     6    41 1   
    15     7     8 1   
    16     7    42 1   
    17     7    43 1   
    18     8     9 1   
    19     9    10 1   
    20     9    44 1   
    21     9    45 1   
    22    10    11 1   
    23    10    46 1   
    24    10    47 1   
    25    11    12 1   
    26    11    48 1   
    27    12    13 1   
    28    12    49 1   
    29    12    50 1   
    30    13    14 1   
    31    13    25 1   
    32    13    51 1   
    33    14    15 1   
    34    14    52 1   
    35    15    16 1   
    36    15    53 1   
    37    15    54 1   
    38    16    17 ar  
    39    16    24 ar  
    40    17    18 ar  
    41    17    55 1   
    42    18    19 1   
    43    18    22 ar  
    44    19    20 1   
    45    19    21 1   
    46    22    23 ar  
    47    22    56 1   
    48    23    24 ar  
    49    23    57 1   
    50    24    25 1   
    51    25    58 1   
    52    25    59 1   
    53    26    27 1   
    54    26    30 1   
    55    27    28 ar  
    56    27    35 ar  
    57    28    29 1   
    58    28    31 ar  
    59    29    30 2   
    60    30    60 1   
    61    31    32 1   
    62    31    33 ar  
    63    32    61 1   
    64    32    62 1   
    65    33    34 ar  
    66    34    35 ar  
    67    34    63 1   
    68    36    64 1   
@<TRIPOS>SUBSTRUCTURE
     1 JIL         1 TEMP              0 ****  ****    0 ROOT
