@<TRIPOS>MOLECULE
JIL
   64    68     1     0     0
SMALL
abcg2


@<TRIPOS>ATOM
      1 O01          4.3630     3.6710     0.5670 oh         1 JIL      -0.703000
      2 C02          4.2810     2.9250    -0.6170 c5         1 JIL       0.108300
      3 C03          5.6190     2.2590    -0.9400 c5         1 JIL       0.082300
      4 C04          5.6270     1.0860     0.0510 c5         1 JIL       0.316300
      5 O05          4.2870     0.7710     0.2970 os         1 JIL      -0.430000
      6 C06          3.4320     1.6830    -0.3990 c5         1 JIL       0.178300
      7 C07          2.1550     1.8770     0.3820 c3         1 JIL       0.070600
      8 S08          1.3240     0.2730     0.6030 ss         1 JIL      -0.409000
      9 C09         -0.3970     0.8370     0.7230 c3         1 JIL       0.049600
     10 C10         -1.3150    -0.3570     0.9310 c3         1 JIL       0.174800
     11 N11         -2.6930     0.0910     0.9630 n7         1 JIL      -0.880400
     12 C12         -3.6630    -0.9840     1.0200 c3         1 JIL       0.157800
     13 C13         -5.0660    -0.4430     0.7930 c6         1 JIL       0.171500
     14 N14         -5.1490     0.1640    -0.5220 n7         1 JIL      -0.854400
     15 C15         -6.3710     0.9200    -0.6760 c6         1 JIL       0.204100
     16 C16         -7.5700     0.0490    -0.4140 ca         1 JIL      -0.086300
     17 C17         -8.8160     0.4250    -0.8960 ca         1 JIL      -0.044000
     18 C18         -9.9210    -0.3660    -0.6340 ca         1 JIL      -0.180200
     19 N19        -11.2170     0.0340    -1.1510 no         1 JIL       0.694200
     20 O20        -11.2880     1.0570    -1.7930 o          1 JIL      -0.401500
     21 O21        -12.1690    -0.6750    -0.9150 o          1 JIL      -0.401500
     22 C22         -9.8170    -1.5360     0.1080 ca         1 JIL      -0.044000
     23 C23         -8.5740    -1.8970     0.5870 ca         1 JIL      -0.127000
     24 C24         -7.4410    -1.1210     0.3380 ca         1 JIL      -0.014300
     25 C25         -6.1030    -1.5540     0.8660 c6         1 JIL      -0.036100
     26 N26          6.3220    -0.0760    -0.4520 na         1 JIL      -0.295300
     27 C27          7.4470    -0.6480     0.0690 ca         1 JIL       0.143500
     28 C28          7.7070    -1.7400    -0.7450 ca         1 JIL      -0.102600
     29 N29          6.7660    -1.8460    -1.7360 nc         1 JIL      -0.550100
     30 C30          5.9650    -0.8440    -1.5280 cd         1 JIL       0.405700
     31 C31          8.8360    -2.5100    -0.4130 ca         1 JIL       0.449900
     32 N32          9.2130    -3.5800    -1.1170 nv         1 JIL      -1.062900
     33 N33          9.5600    -2.1360     0.6480 nb         1 JIL      -0.301000
     34 C34          9.1880    -1.0630     1.3400 ca         1 JIL       0.183900
     35 N35          8.1570    -0.2640     1.1260 nb         1 JIL      -0.217000
     36 O36          6.7470     3.0550    -0.7330 oh         1 JIL      -0.691000
     37 H011         5.1850     4.1740     0.5460 ho         1 JIL       0.525000
     38 H021         3.9000     3.5190    -1.4570 h1         1 JIL       0.057700
     39 H031         5.5770     1.8740    -1.9680 h1         1 JIL       0.054700
     40 H041         6.1380     1.3680     0.9760 h2         1 JIL       0.129700
     41 H061         3.1760     1.2690    -1.3840 h1         1 JIL       0.055700
     42 H071         2.3400     2.3410     1.3500 h1         1 JIL       0.079700
     43 H072         1.4950     2.5280    -0.1940 h1         1 JIL       0.079700
     44 H091        -0.4910     1.5370     1.5560 h1         1 JIL       0.062200
     45 H092        -0.6730     1.3580    -0.1950 h1         1 JIL       0.062200
     46 H101        -1.2010    -1.0530     0.0950 h1         1 JIL       0.047200
     47 H102        -1.0150    -0.9010     1.8390 h1         1 JIL       0.047200
     48 H111        -2.8250     0.6990     1.7630 hn         1 JIL       0.407000
     49 H121        -3.4350    -1.6980     0.2230 h1         1 JIL       0.043700
     50 H122        -3.6390    -1.5460     1.9650 h1         1 JIL       0.043700
     51 H131        -5.2860     0.2900     1.5910 h1         1 JIL       0.023700
     52 H141        -4.3520     0.7770    -0.6450 hn         1 JIL       0.440000
     53 H151        -6.4240     1.7860     0.0050 h1         1 JIL       0.045700
     54 H152        -6.4240     1.3210    -1.6910 h1         1 JIL       0.045700
     55 H171        -8.9090     1.3330    -1.4770 ha         1 JIL       0.149000
     56 H221       -10.6790    -2.1530     0.3140 ha         1 JIL       0.151000
     57 H231        -8.4780    -2.8040     1.1710 ha         1 JIL       0.125000
     58 H251        -5.7580    -2.4120     0.2770 hc         1 JIL       0.062700
     59 H252        -6.2100    -1.9090     1.8930 hc         1 JIL       0.062700
     60 H301         5.0920    -0.6180    -2.1230 h5         1 JIL       0.063800
     61 H321         8.6440    -3.9320    -1.8660 hn         1 JIL       0.505000
     62 H322         9.9770    -4.1480    -0.7940 hn         1 JIL       0.505000
     63 H341         9.8170    -0.8150     2.1890 h5         1 JIL       0.047100
     64 H361         6.8910     3.5990    -1.5140 ho         1 JIL       0.516000
@<TRIPOS>BOND
     1     1     2 1   
     2     1    37 1   
     3     2     3 1   
     4     2     6 1   
     5     2    38 1   
     6     3     4 1   
     7     3    36 1   
     8     3    39 1   
     9     4     5 1   
    10     4    26 1   
    11     4    40 1   
    12     5     6 1   
    13     6     7 1   
    14     6    41 1   
    15     7     8 1   
    16     7    42 1   
    17     7    43 1   
    18     8     9 1   
    19     9    10 1   
    20     9    44 1   
    21     9    45 1   
    22    10    11 1   
    23    10    46 1   
    24    10    47 1   
    25    11    12 1   
    26    11    48 1   
    27    12    13 1   
    28    12    49 1   
    29    12    50 1   
    30    13    14 1   
    31    13    25 1   
    32    13    51 1   
    33    14    15 1   
    34    14    52 1   
    35    15    16 1   
    36    15    53 1   
    37    15    54 1   
    38    16    17 ar  
    39    16    24 ar  
    40    17    18 ar  
    41    17    55 1   
    42    18    19 1   
    43    18    22 ar  
    44    19    20 1   
    45    19    21 1   
    46    22    23 ar  
    47    22    56 1   
    48    23    24 ar  
    49    23    57 1   
    50    24    25 1   
    51    25    58 1   
    52    25    59 1   
    53    26    27 1   
    54    26    30 1   
    55    27    28 ar  
    56    27    35 ar  
    57    28    29 1   
    58    28    31 ar  
    59    29    30 2   
    60    30    60 1   
    61    31    32 1   
    62    31    33 ar  
    63    32    61 1   
    64    32    62 1   
    65    33    34 ar  
    66    34    35 ar  
    67    34    63 1   
    68    36    64 1   
@<TRIPOS>SUBSTRUCTURE
     1 JIL         1 TEMP              0 ****  ****    0 ROOT
