@<TRIPOS>MOLECULE
JIM
   19    18     1     0     0
SMALL
No Charge or Current Charge


@<TRIPOS>ATOM
      1 OAA         -3.6730    -0.0430    -0.0550 oh         1 JIM      -0.642000
      2 CAB         -2.4660     0.7360    -0.1310 c3         1 JIM       0.128600
      3 CAC         -1.2250    -0.1830     0.0150 c3         1 JIM       0.164300
      4 CAD          0.1020     0.6070    -0.1260 c3         1 JIM       0.127600
      5 OAE          1.2070    -0.2730     0.1710 os         1 JIM      -0.434100
      6 CAF          2.4770     0.2330     0.0840 c          1 JIM       0.593100
      7 OAG          2.7460     1.3870    -0.2230 o          1 JIM      -0.492000
      8 OAH         -1.3060    -1.2250    -0.9790 oh         1 JIM      -0.626000
      9 CAI          3.5250    -0.8170     0.4250 c3         1 JIM      -0.155100
     10 HOAA        -4.4280     0.5860    -0.1010 ho         1 JIM       0.445000
     11 HAB         -2.4160     1.2680    -1.0900 h1         1 JIM       0.021700
     12 HABA        -2.4500     1.4880     0.6690 h1         1 JIM       0.021700
     13 HAC         -1.2510    -0.6180     1.0240 h1         1 JIM       0.097700
     14 HAD          0.1820     1.0060    -1.1460 h1         1 JIM       0.050700
     15 HADA         0.0910     1.4550     0.5720 h1         1 JIM       0.050700
     16 HOAH        -2.2660    -1.4340    -1.0420 ho         1 JIM       0.436000
     17 HAI          3.3780    -1.6860    -0.2250 hc         1 JIM       0.070700
     18 HAIA         4.5470    -0.4290     0.3640 hc         1 JIM       0.070700
     19 HAIB         3.3020    -1.2290     1.4160 hc         1 JIM       0.070700
@<TRIPOS>BOND
     1     1     2 1   
     2     1    10 1   
     3     2     3 1   
     4     2    11 1   
     5     2    12 1   
     6     3     4 1   
     7     3     8 1   
     8     3    13 1   
     9     4     5 1   
    10     4    14 1   
    11     4    15 1   
    12     5     6 1   
    13     6     7 2   
    14     6     9 1   
    15     8    16 1   
    16     9    17 1   
    17     9    18 1   
    18     9    19 1   
@<TRIPOS>SUBSTRUCTURE
     1 JIM         1 TEMP              0 ****  ****    0 ROOT
