@<TRIPOS>MOLECULE
JIM
   19    18     1     0     0
SMALL
abcg2


@<TRIPOS>ATOM
      1 OAA         -3.6220    -0.0280     0.2860 oh         1 JIM      -0.642000
      2 CAB         -2.4580     0.6920    -0.0380 c3         1 JIM       0.128600
      3 CAC         -1.2520    -0.2120     0.1630 c3         1 JIM       0.164300
      4 CAD          0.0160     0.5820    -0.1010 c3         1 JIM       0.127600
      5 OAE          1.1270    -0.2630     0.1970 os         1 JIM      -0.434100
      6 CAF          2.3470     0.2170    -0.0180 c          1 JIM       0.593100
      7 OAG          2.5580     1.3270    -0.4400 o          1 JIM      -0.492000
      8 OAH         -1.3160    -1.3830    -0.6130 oh         1 JIM      -0.626000
      9 CAI          3.4030    -0.7960     0.3120 c3         1 JIM      -0.155100
     10 HOAA        -4.3770     0.5510     0.1460 ho         1 JIM       0.445000
     11 HAB         -2.4770     1.0450    -1.0790 h1         1 JIM       0.021700
     12 HABA        -2.3410     1.5810     0.5950 h1         1 JIM       0.021700
     13 HAC         -1.2420    -0.5460     1.2060 h1         1 JIM       0.097700
     14 HAD          0.0570     0.9070    -1.1450 h1         1 JIM       0.050700
     15 HADA         0.0420     1.4730     0.5310 h1         1 JIM       0.050700
     16 HOAH        -1.3860    -1.1350    -1.5420 ho         1 JIM       0.436000
     17 HAI          3.3940    -1.5930    -0.4330 hc         1 JIM       0.070700
     18 HAIA         4.3850    -0.3330     0.3130 hc         1 JIM       0.070700
     19 HAIB         3.2180    -1.2570     1.2820 hc         1 JIM       0.070700
@<TRIPOS>BOND
     1     1     2 1   
     2     1    10 1   
     3     2     3 1   
     4     2    11 1   
     5     2    12 1   
     6     3     4 1   
     7     3     8 1   
     8     3    13 1   
     9     4     5 1   
    10     4    14 1   
    11     4    15 1   
    12     5     6 1   
    13     6     7 2   
    14     6     9 1   
    15     8    16 1   
    16     9    17 1   
    17     9    18 1   
    18     9    19 1   
@<TRIPOS>SUBSTRUCTURE
     1 JIM         1 TEMP              0 ****  ****    0 ROOT
