@<TRIPOS>MOLECULE
JIN
   44    47     1     0     0
SMALL
bcc


@<TRIPOS>ATOM
      1 C10         -0.1440    -4.9660    -1.4280 cc         1 JIN       0.030800
      2 C12          1.9450    -5.3190    -0.2060 c          1 JIN       0.725700
      3 C13          3.0500    -3.4180     0.8950 c3         1 JIN       0.079300
      4 C15          1.6010    -9.0780    -2.7360 ca         1 JIN      -0.123500
      5 C16          0.8160    -9.9580    -2.0070 ca         1 JIN      -0.106000
      6 C19          0.8310    -7.2360    -1.3460 ca         1 JIN      -0.020800
      7 C20          1.5990    -7.7370    -2.3950 ca         1 JIN       0.053400
      8 C27          1.0050     1.0270     0.7570 ca         1 JIN       0.159600
      9 C30          2.6420     2.6640     2.2670 ca         1 JIN       0.106900
     10 C31          1.5430     3.2100     1.6370 ca         1 JIN      -0.135000
     11 F35          3.4360     3.4650     3.0040 f          1 JIN      -0.144900
     12 C29          2.9580     1.3190     2.1740 ca         1 JIN      -0.085300
     13 C28          2.1250     0.5080     1.4090 ca         1 JIN      -0.129000
     14 C26          0.7250     2.3900     0.8810 ca         1 JIN      -0.162000
     15 N08          0.1180     0.2810    -0.0180 nu         1 JIN      -0.720300
     16 C04          0.0930    -1.0270    -0.3530 ca         1 JIN       0.955900
     17 N03         -0.9700    -1.3760    -1.1070 nb         1 JIN      -0.788000
     18 C02         -1.0460    -2.6370    -1.4520 ca         1 JIN       0.538200
     19 N05          1.0570    -1.8390     0.0530 nb         1 JIN      -0.822000
     20 C06          0.9680    -3.1110    -0.3060 ca         1 JIN       0.636200
     21 N11          1.9540    -3.9610     0.1020 n          1 JIN      -0.424300
     22 O14          2.8290    -6.0610     0.1880 o          1 JIN      -0.595500
     23 C09          0.8320    -5.7990    -1.0140 cd         1 JIN      -0.162400
     24 C01         -0.0980    -3.5930    -1.0820 ca         1 JIN      -0.425400
     25 C18          0.0640    -8.1550    -0.6330 ca         1 JIN       0.053400
     26 C17          0.0430    -9.5040    -0.9510 ca         1 JIN      -0.123500
     27 CL4         -0.8910    -7.6010     0.6990 cl         1 JIN      -0.097900
     28 CL5          2.5790    -6.6410    -3.3060 cl         1 JIN      -0.097900
     29 H10         -0.9700    -5.3320    -2.0260 ha         1 JIN       0.146000
     30 H131         2.6780    -3.0260     1.8390 h1         1 JIN       0.060033
     31 H132         3.5470    -2.6190     0.3500 h1         1 JIN       0.060033
     32 H133         3.7630    -4.2080     1.0950 h1         1 JIN       0.060033
     33 H15          2.2040    -9.4330    -3.5610 ha         1 JIN       0.152500
     34 H16          0.8070   -11.0080    -2.2650 ha         1 JIN       0.141000
     35 H31          1.3230     4.2650     1.7330 ha         1 JIN       0.152000
     36 H341         5.0840     1.2020     2.5020 hc         1 JIN       0.049033
     37 H342         4.1230     0.9300     3.9460 hc         1 JIN       0.049033
     38 H343         4.2260    -0.3200     2.7130 hc         1 JIN       0.049033
     39 H28          2.3580    -0.5410     1.3250 ha         1 JIN       0.169000
     40 H26         -0.1400     2.8150     0.3860 ha         1 JIN       0.136000
     41 HN08        -0.6630     0.7980    -0.3950 hn         1 JIN       0.460800
     42 H02         -1.8990    -2.9330    -2.0550 h4         1 JIN       0.029100
     43 H17         -0.5680   -10.1900    -0.3810 ha         1 JIN       0.152500
     44 C34          4.1600     0.7550     2.8710 c3         1 JIN      -0.043800
@<TRIPOS>BOND
     1     1    23 2   
     2     1    24 1   
     3     1    29 1   
     4     2    21 1   
     5     2    22 2   
     6     2    23 1   
     7     3    21 1   
     8     3    30 1   
     9     3    31 1   
    10     3    32 1   
    11     4     5 ar  
    12     4     7 ar  
    13     4    33 1   
    14     5    26 ar  
    15     5    34 1   
    16     6     7 ar  
    17     6    23 1   
    18     6    25 ar  
    19     7    28 1   
    20     8    13 ar  
    21     8    14 ar  
    22     8    15 1   
    23     9    10 ar  
    24     9    11 1   
    25     9    12 ar  
    26    10    14 ar  
    27    10    35 1   
    28    12    13 ar  
    29    12    44 1   
    30    13    39 1   
    31    14    40 1   
    32    15    16 1   
    33    15    41 1   
    34    16    17 ar  
    35    16    19 ar  
    36    17    18 ar  
    37    18    24 ar  
    38    18    42 1   
    39    19    20 ar  
    40    20    21 1   
    41    20    24 ar  
    42    25    26 ar  
    43    25    27 1   
    44    26    43 1   
    45    36    44 1   
    46    37    44 1   
    47    38    44 1   
@<TRIPOS>SUBSTRUCTURE
     1 JIN         1 TEMP              0 ****  ****    0 ROOT
