@<TRIPOS>MOLECULE
JIN
   44    47     1     0     0
SMALL
No Charge or Current Charge


@<TRIPOS>ATOM
      1 C10         -0.2250    -5.0670    -1.2420 cc         1 JIN      -0.019200
      2 C12          2.1650    -5.3210    -0.4840 c          1 JIN       0.583200
      3 C13          3.4270    -3.3500     0.4060 c3         1 JIN       0.079300
      4 C15          1.6790    -9.2360    -2.6880 ca         1 JIN      -0.105500
      5 C16          0.7160   -10.0580    -2.0840 ca         1 JIN      -0.088000
      6 C19          0.8380    -7.2960    -1.4420 ca         1 JIN      -0.020800
      7 C20          1.7430    -7.8680    -2.3730 ca         1 JIN       0.145000
      8 C27          0.9620     1.0740     0.8490 ca         1 JIN       0.298000
      9 C30          2.7970     2.8180     2.0930 ca         1 JIN       0.142000
     10 C31          1.8570     3.3220     1.1810 ca         1 JIN      -0.117000
     11 F35          3.6720     3.6680     2.6780 f          1 JIN      -0.180000
     12 C29          2.8250     1.4440     2.4030 ca         1 JIN      -0.085300
     13 C28          1.8990     0.5800     1.7800 ca         1 JIN      -0.111000
     14 C26          0.9400     2.4510     0.5650 ca         1 JIN      -0.144000
     15 N08          0.0240     0.2490     0.2160 nu         1 JIN      -0.913900
     16 C04         -0.0120    -1.0930    -0.1340 ca         1 JIN       0.429900
     17 N03         -1.1840    -1.5150    -0.6290 nb         1 JIN      -0.262000
     18 C02         -1.2490    -2.8100    -0.9880 ca         1 JIN       0.209900
     19 N05          1.1000    -1.8260     0.0280 nb         1 JIN      -0.296000
     20 C06          1.0330    -3.1210    -0.3360 ca         1 JIN       0.307900
     21 N11          2.1850    -3.9450    -0.1640 n          1 JIN      -0.357300
     22 O14          3.1210    -6.0450    -0.2360 o          1 JIN      -0.520000
     23 C09          0.9090    -5.8510    -1.1150 cd         1 JIN      -0.162400
     24 C01         -0.1430    -3.6690    -0.8550 ca         1 JIN      -0.294800
     25 C18         -0.1380    -8.1390    -0.8500 ca         1 JIN       0.145000
     26 C17         -0.1900    -9.5070    -1.1680 ca         1 JIN      -0.105500
     27 Cl4         -1.2650    -7.5440     0.3750 cl         1 JIN      -0.189500
     28 Cl5          2.9030    -6.8770    -3.2640 cl         1 JIN      -0.189500
     29 H10         -1.1390    -5.4880    -1.6600 ha         1 JIN       0.196000
     30 H131         3.2890    -3.1720     1.4800 h1         1 JIN       0.060033
     31 H132         3.6490    -2.3950    -0.0880 h1         1 JIN       0.060033
     32 H133         4.2950    -4.0050     0.2650 h1         1 JIN       0.060033
     33 H15          2.3700    -9.6560    -3.4140 ha         1 JIN       0.134500
     34 H16          0.6700   -11.1180    -2.3300 ha         1 JIN       0.123000
     35 H31          1.8400     4.3850     0.9530 ha         1 JIN       0.134000
     36 H341         4.8610     1.1160     3.0880 hc         1 JIN       0.049033
     37 H342         3.6850     1.3400     4.3950 hc         1 JIN       0.049033
     38 H343         3.7520    -0.1930     3.5140 hc         1 JIN       0.049033
     39 H28          1.9020    -0.4730     2.0390 ha         1 JIN       0.151000
     40 H26          0.2170     2.8500    -0.1420 ha         1 JIN       0.118000
     41 HN08        -0.7840     0.7540    -0.1470 hn         1 JIN       0.516000
     42 H02         -2.2000    -3.1620    -1.3860 h4         1 JIN       0.029100
     43 H17         -0.9330   -10.1430    -0.6930 ha         1 JIN       0.134500
     44 C34          3.8340     0.8950     3.4040 c3         1 JIN      -0.043800
@<TRIPOS>BOND
     1     1    23 2   
     2     1    24 1   
     3     1    29 1   
     4     2    21 1   
     5     2    22 2   
     6     2    23 1   
     7     3    21 1   
     8     3    30 1   
     9     3    31 1   
    10     3    32 1   
    11     4     5 ar  
    12     4     7 ar  
    13     4    33 1   
    14     5    26 ar  
    15     5    34 1   
    16     6     7 ar  
    17     6    23 1   
    18     6    25 ar  
    19     7    28 1   
    20     8    13 ar  
    21     8    14 ar  
    22     8    15 1   
    23     9    10 ar  
    24     9    11 1   
    25     9    12 ar  
    26    10    14 ar  
    27    10    35 1   
    28    12    13 ar  
    29    12    44 1   
    30    13    39 1   
    31    14    40 1   
    32    15    16 1   
    33    15    41 1   
    34    16    17 ar  
    35    16    19 ar  
    36    17    18 ar  
    37    18    24 ar  
    38    18    42 1   
    39    19    20 ar  
    40    20    21 1   
    41    20    24 ar  
    42    25    26 ar  
    43    25    27 1   
    44    26    43 1   
    45    36    44 1   
    46    37    44 1   
    47    38    44 1   
@<TRIPOS>SUBSTRUCTURE
     1 JIN         1 TEMP              0 ****  ****    0 ROOT
