@<TRIPOS>MOLECULE
JIP
   46    49     1     0     0
SMALL
No Charge or Current Charge


@<TRIPOS>ATOM
      1 C10         99.5430   -10.9040    13.7490 ca         1 JIP      -0.123000
      2 C11         98.9570   -11.9060    14.5370 ca         1 JIP      -0.101000
      3 C13         96.7780   -11.3630    13.5950 ca         1 JIP      -0.078000
      4 C15         92.3750    -7.6150    16.9350 cc         1 JIP       0.285900
      5 C16         92.3760    -7.0760    15.6460 cd         1 JIP      -0.090300
      6 C17         92.3370    -9.8350    16.2250 cd         1 JIP       0.404300
      7 C18         92.3340    -9.3520    14.8870 cd         1 JIP      -0.117000
      8 C21         92.3430    -8.9750    12.8210 cc         1 JIP       0.491300
      9 C24         92.3990    -5.5960    15.3350 c3         1 JIP      -0.041800
     10 C25         92.3550    -9.2940    11.3270 c3         1 JIP       0.226500
     11 C26         93.0700    -8.0340     9.2370 c3         1 JIP       0.213100
     12 N1          95.8830    -8.0850    10.5230 na         1 JIP      -0.087700
     13 N2          96.9990    -8.5370    11.1570 nc         1 JIP      -0.546800
     14 C3          96.5130    -9.5340    11.8860 cd         1 JIP       0.609500
     15 N4          95.1570    -9.7430    11.7510 nd         1 JIP      -0.739000
     16 C5          94.7750    -8.8310    10.8950 cc         1 JIP       0.691400
     17 C7          97.3550   -10.3500    12.7930 ca         1 JIP      -0.119500
     18 N8          93.4600    -8.7000    10.4980 nh         1 JIP      -0.782300
     19 C9          98.7500   -10.1300    12.8830 ca         1 JIP      -0.078000
     20 C12         97.5750   -12.1340    14.4600 ca         1 JIP      -0.123000
     21 N14         92.3570    -8.9770    17.2430 nc         1 JIP      -0.648000
     22 N19         92.3550    -8.0250    14.6280 na         1 JIP       0.313400
     23 N20         92.3540    -7.7310    13.3020 nd         1 JIP      -0.601100
     24 N22         92.3190   -10.0020    13.7410 nc         1 JIP      -0.377300
     25 H31        100.6150   -10.7250    13.8080 ha         1 JIP       0.111500
     26 H32         99.5720   -12.5030    15.2070 ha         1 JIP       0.110000
     27 H34         95.7080   -11.5570    13.5540 ha         1 JIP       0.128500
     28 H35         92.3900    -6.9750    17.8070 h4         1 JIP       0.039100
     29 H37         92.3270   -11.4760    17.6420 hc         1 JIP       0.064700
     30 H38         91.4300   -11.7820    16.1450 hc         1 JIP       0.064700
     31 H36         93.2020   -11.8010    16.1370 hc         1 JIP       0.064700
     32 H40         93.2860    -5.3300    14.7480 hc         1 JIP       0.063700
     33 H39         91.5130    -5.3000    14.7600 hc         1 JIP       0.063700
     34 H41         92.4160    -4.9940    16.2510 hc         1 JIP       0.063700
     35 H43         91.3790    -8.9780    10.9380 h1         1 JIP       0.090200
     36 H42         92.3820   -10.3860    11.2230 h1         1 JIP       0.090200
     37 H46         92.0770    -8.3640     8.9060 h1         1 JIP       0.040033
     38 H45         93.0410    -6.9450     9.3710 h1         1 JIP       0.040033
     39 H44         93.7820    -8.2750     8.4370 h1         1 JIP       0.040033
     40 H29         96.9390    -6.4270     9.7370 h1         1 JIP       0.056367
     41 H27         95.8200    -7.2220     8.5950 h1         1 JIP       0.056367
     42 H28         95.1800    -6.1890     9.9140 h1         1 JIP       0.056367
     43 H30         99.2270    -9.3590    12.2820 ha         1 JIP       0.128500
     44 H33         97.1180   -12.9090    15.0710 ha         1 JIP       0.111500
     45 C6          95.9590    -6.9100     9.6380 c3         1 JIP       0.074900
     46 C23         92.3230   -11.3010    16.5600 c3         1 JIP      -0.141400
@<TRIPOS>BOND
     1     1     2 ar  
     2     1    19 ar  
     3     1    25 1   
     4     2    20 ar  
     5     2    26 1   
     6     3    17 ar  
     7     3    20 ar  
     8     3    27 1   
     9     4     5 2   
    10     4    21 1   
    11     4    28 1   
    12     5     9 1   
    13     5    22 1   
    14     6     7 1   
    15     6    21 2   
    16     6    46 1   
    17     7    22 1   
    18     7    24 2   
    19     8    10 1   
    20     8    23 2   
    21     8    24 1   
    22     9    32 1   
    23     9    33 1   
    24     9    34 1   
    25    10    18 1   
    26    10    35 1   
    27    10    36 1   
    28    11    18 1   
    29    11    37 1   
    30    11    38 1   
    31    11    39 1   
    32    12    13 1   
    33    12    16 1   
    34    12    45 1   
    35    13    14 2   
    36    14    15 1   
    37    14    17 1   
    38    15    16 2   
    39    16    18 1   
    40    17    19 ar  
    41    19    43 1   
    42    20    44 1   
    43    22    23 1   
    44    29    46 1   
    45    30    46 1   
    46    31    46 1   
    47    40    45 1   
    48    41    45 1   
    49    42    45 1   
@<TRIPOS>SUBSTRUCTURE
     1 JIP         1 TEMP              0 ****  ****    0 ROOT
