@<TRIPOS>MOLECULE
JIP
   46    49     1     0     0
SMALL
bcc


@<TRIPOS>ATOM
      1 C10        100.5480   -10.3230    12.9210 ca         1 JIP      -0.141000
      2 C11        100.5390   -11.7030    13.0880 ca         1 JIP      -0.119000
      3 C13         98.2100   -11.7490    12.4820 ca         1 JIP      -0.096000
      4 C15         91.5700    -6.9280    16.4410 cc         1 JIP       0.351200
      5 C16         92.3790    -6.9840    15.3440 cd         1 JIP      -0.104900
      6 C17         90.5710    -8.9700    16.0640 cd         1 JIP       0.469600
      7 C18         91.3730    -9.1180    14.9060 cd         1 JIP      -0.131600
      8 C21         92.4090    -9.5970    13.1590 cc         1 JIP       0.491300
      9 C24         93.3560    -5.9540    14.9170 c3         1 JIP      -0.041800
     10 C25         92.8920   -10.3420    11.9510 c3         1 JIP       0.226500
     11 C26         92.9420    -8.6330    10.1820 c3         1 JIP       0.213100
     12 N1          95.6600    -8.1630    11.3450 na         1 JIP      -0.058400
     13 N2          96.9500    -8.3830    11.6640 nc         1 JIP      -0.546800
     14 C3          96.9870    -9.6710    11.9080 cd         1 JIP       0.609500
     15 N4          95.8060   -10.2990    11.7370 nd         1 JIP      -0.739000
     16 C5          94.9870    -9.3290    11.3740 cc         1 JIP       0.691400
     17 C7          98.2120   -10.3650    12.3130 ca         1 JIP      -0.119500
     18 N8          93.6720    -9.5200    11.0620 nh         1 JIP      -0.782300
     19 C9          99.3940    -9.6580    12.5370 ca         1 JIP      -0.096000
     20 C12         99.3660   -12.4120    12.8670 ca         1 JIP      -0.141000
     21 N14         90.6900    -7.8940    16.7920 nc         1 JIP      -0.648000
     22 N19         92.2430    -8.1150    14.5980 na         1 JIP       0.212000
     23 N20         92.9080    -8.4140    13.4850 nd         1 JIP      -0.601100
     24 N22         91.4720   -10.0700    13.9890 nc         1 JIP      -0.377300
     25 H31        101.4570    -9.7620    13.0920 ha         1 JIP       0.129500
     26 H32        101.4400   -12.2210    13.3890 ha         1 JIP       0.128000
     27 H34         97.2990   -12.3080    12.3110 ha         1 JIP       0.146500
     28 H35         91.6200    -6.0600    17.0860 h4         1 JIP       0.039100
     29 H37         89.1060    -9.7950    17.3700 hc         1 JIP       0.064700
     30 H38         88.8460   -10.1660    15.6590 hc         1 JIP       0.064700
     31 H36         90.1060   -11.0020    16.5450 hc         1 JIP       0.064700
     32 H40         94.3670    -6.3610    14.8770 hc         1 JIP       0.063700
     33 H39         93.1180    -5.5740    13.9220 hc         1 JIP       0.063700
     34 H41         93.3460    -5.1210    15.6160 hc         1 JIP       0.063700
     35 H43         92.0320   -10.7400    11.4100 h1         1 JIP       0.090200
     36 H42         93.4790   -11.2050    12.2730 h1         1 JIP       0.090200
     37 H46         92.1550    -9.2070     9.6930 h1         1 JIP       0.040033
     38 H45         92.4740    -7.7880    10.6920 h1         1 JIP       0.040033
     39 H44         93.5940    -8.2520     9.3990 h1         1 JIP       0.040033
     40 H29         95.9150    -6.1420    11.6160 h1         1 JIP       0.056367
     41 H27         95.1170    -6.5540    10.0920 h1         1 JIP       0.056367
     42 H28         94.2330    -6.6680    11.6310 h1         1 JIP       0.056367
     43 H30         99.4130    -8.5830    12.4110 ha         1 JIP       0.146500
     44 H33         99.3490   -13.4870    12.9940 ha         1 JIP       0.129500
     45 C6          95.1960    -6.8080    11.1480 c3         1 JIP       0.045600
     46 C23         89.6030   -10.0410    16.4350 c3         1 JIP      -0.141400
@<TRIPOS>BOND
     1     1     2 ar  
     2     1    19 ar  
     3     1    25 1   
     4     2    20 ar  
     5     2    26 1   
     6     3    17 ar  
     7     3    20 ar  
     8     3    27 1   
     9     4     5 2   
    10     4    21 1   
    11     4    28 1   
    12     5     9 1   
    13     5    22 1   
    14     6     7 1   
    15     6    21 2   
    16     6    46 1   
    17     7    22 1   
    18     7    24 2   
    19     8    10 1   
    20     8    23 2   
    21     8    24 1   
    22     9    32 1   
    23     9    33 1   
    24     9    34 1   
    25    10    18 1   
    26    10    35 1   
    27    10    36 1   
    28    11    18 1   
    29    11    37 1   
    30    11    38 1   
    31    11    39 1   
    32    12    13 1   
    33    12    16 1   
    34    12    45 1   
    35    13    14 2   
    36    14    15 1   
    37    14    17 1   
    38    15    16 2   
    39    16    18 1   
    40    17    19 ar  
    41    19    43 1   
    42    20    44 1   
    43    22    23 1   
    44    29    46 1   
    45    30    46 1   
    46    31    46 1   
    47    40    45 1   
    48    41    45 1   
    49    42    45 1   
@<TRIPOS>SUBSTRUCTURE
     1 JIP         1 TEMP              0 ****  ****    0 ROOT
