@<TRIPOS>MOLECULE
JIS
   46    50     1     0     0
SMALL
No Charge or Current Charge


@<TRIPOS>ATOM
      1 C6          92.2280    -7.4540    14.8500 ca         1 JIS       0.478900
      2 C10         95.2830    -8.8210    11.3140 c3         1 JIS       0.141900
      3 C13         97.4910    -9.5330    12.4670 ca         1 JIS      -0.012000
      4 C15         90.2010    -6.9960    16.2940 c6         1 JIS       0.212300
      5 C17         96.5120   -10.9470    10.7300 ca         1 JIS      -0.072000
      6 C20         98.5780   -11.6280    11.8120 ca         1 JIS      -0.082000
      7 C21         99.5750   -10.2460    13.5430 ca         1 JIS      -0.098000
      8 C22         88.9570    -7.8080    16.7340 c6         1 JIS      -0.097900
      9 C24         98.5250    -8.1630    14.2160 ca         1 JIS      -0.102000
     10 C26         89.3250    -8.8890    17.7770 c6         1 JIS      -0.077400
     11 C1          92.9190    -8.3190    13.9720 ca         1 JIS      -0.140600
     12 N2          94.2880    -8.8710    12.4000 na         1 JIS      -0.038100
     13 C3          93.8110    -7.7890    13.0860 ca         1 JIS       0.121500
     14 N4          93.6790   -10.0320    12.8470 nc         1 JIS      -0.164400
     15 N5          92.8340    -9.7010    13.8180 nd         1 JIS      -0.209400
     16 N7          94.0570    -6.4670    13.0070 nb         1 JIS      -0.234000
     17 N8          91.2820    -7.9030    15.8040 nh         1 JIS      -0.746300
     18 N9          92.4530    -6.1220    14.7850 nb         1 JIS      -0.323000
     19 C11         96.4620    -9.7780    11.5170 ca         1 JIS      -0.103300
     20 C12         93.3560    -5.6960    13.8700 ca         1 JIS       0.203900
     21 C14         98.5470   -10.4680    12.6070 ca         1 JIS      -0.042000
     22 C16         91.6810    -8.9430    16.7970 c6         1 JIS       0.212300
     23 C18         97.5630   -11.8650    10.8750 ca         1 JIS      -0.115000
     24 C19         97.4960    -8.3770    13.2840 ca         1 JIS      -0.106000
     25 C23         90.4590    -9.7870    17.2320 c6         1 JIS      -0.097900
     26 C25         99.5640    -9.0960    14.3470 ca         1 JIS      -0.108000
     27 H1          94.7680    -9.0640    10.3760 h1         1 JIS       0.077200
     28 H2          95.6580    -7.7950    11.2090 h1         1 JIS       0.077200
     29 H4          89.8920    -6.2950    15.5040 h1         1 JIS       0.070700
     30 H5          95.7300   -11.1490    10.0020 ha         1 JIS       0.115000
     31 H6          99.3880   -12.3460    11.9180 ha         1 JIS       0.114000
     32 H7         100.3840   -10.9650    13.6500 ha         1 JIS       0.112000
     33 H8          88.1980    -7.1300    17.1460 hc         1 JIS       0.053700
     34 H9          88.5040    -8.2840    15.8530 hc         1 JIS       0.053700
     35 H10         98.5160    -7.2710    14.8380 ha         1 JIS       0.114000
     36 H11         89.6450    -8.4100    18.7130 hc         1 JIS       0.043200
     37 H12         88.4430    -9.4980    18.0180 hc         1 JIS       0.043200
     38 H13         93.5370    -4.6240    13.8230 h5         1 JIS       0.047100
     39 H14         92.4480    -9.6170    16.3890 h1         1 JIS       0.070700
     40 H15         92.1220    -8.4630    17.6830 h1         1 JIS       0.070700
     41 H16         97.5880   -12.7630    10.2620 ha         1 JIS       0.117000
     42 H17         96.7110    -7.6310    13.2110 ha         1 JIS       0.129000
     43 H18         90.0940   -10.3690    16.3750 hc         1 JIS       0.053700
     44 H19         90.7650   -10.5140    17.9970 hc         1 JIS       0.053700
     45 H20        100.3590    -8.9280    15.0690 ha         1 JIS       0.113000
     46 H3          90.5640    -6.3950    17.1420 h1         1 JIS       0.070700
@<TRIPOS>BOND
     1     1    11 ar  
     2     1    17 1   
     3     1    18 ar  
     4     2    12 1   
     5     2    19 1   
     6     2    27 1   
     7     2    28 1   
     8     3    19 ar  
     9     3    21 ar  
    10     3    24 ar  
    11     4     8 1   
    12     4    17 1   
    13     4    29 1   
    14     4    46 1   
    15     5    19 ar  
    16     5    23 ar  
    17     5    30 1   
    18     6    21 ar  
    19     6    23 ar  
    20     6    31 1   
    21     7    21 ar  
    22     7    26 ar  
    23     7    32 1   
    24     8    10 1   
    25     8    33 1   
    26     8    34 1   
    27     9    24 ar  
    28     9    26 ar  
    29     9    35 1   
    30    10    25 1   
    31    10    36 1   
    32    10    37 1   
    33    11    13 ar  
    34    11    15 1   
    35    12    13 1   
    36    12    14 1   
    37    13    16 ar  
    38    14    15 2   
    39    16    20 ar  
    40    17    22 1   
    41    18    20 ar  
    42    20    38 1   
    43    22    25 1   
    44    22    39 1   
    45    22    40 1   
    46    23    41 1   
    47    24    42 1   
    48    25    43 1   
    49    25    44 1   
    50    26    45 1   
@<TRIPOS>SUBSTRUCTURE
     1 JIS         1 TEMP              0 ****  ****    0 ROOT
