@<TRIPOS>MOLECULE
JIS
   46    50     1     0     0
SMALL
abcg2


@<TRIPOS>ATOM
      1 C6          92.4110    -7.7360    15.1760 ca         1 JIS       0.478900
      2 C10         95.0800    -9.2480    11.3970 c3         1 JIS       0.141900
      3 C13         97.4180    -9.4340    12.4060 ca         1 JIS      -0.012000
      4 C15         90.9770    -7.0500    17.0300 c6         1 JIS       0.212300
      5 C17         96.4990   -11.2560    11.1090 ca         1 JIS      -0.072000
      6 C20         98.6870   -11.5040    12.0700 ca         1 JIS      -0.082000
      7 C21         99.6440    -9.6680    13.4000 ca         1 JIS      -0.098000
      8 C22         89.4670    -7.2060    16.9050 c6         1 JIS      -0.097900
      9 C24         98.4000    -7.6350    13.7010 ca         1 JIS      -0.102000
     10 C26         89.0310    -8.6200    17.2740 c6         1 JIS      -0.077400
     11 C1          93.0340    -8.6650    14.2890 ca         1 JIS      -0.140600
     12 N2          94.2460    -9.1970    12.5860 na         1 JIS      -0.038100
     13 C3          93.7890    -8.1230    13.2570 ca         1 JIS       0.121500
     14 N4          93.8020   -10.3160    13.1610 nc         1 JIS      -0.164400
     15 N5          93.0820   -10.0210    14.1720 nd         1 JIS      -0.209400
     16 N7          94.0060    -6.8320    13.0020 nb         1 JIS      -0.234000
     17 N8          91.6570    -8.0580    16.2260 nh         1 JIS      -0.746300
     18 N9          92.6290    -6.4400    14.9100 nb         1 JIS      -0.323000
     19 C11         96.3610    -9.9980    11.6350 ca         1 JIS      -0.103300
     20 C12         93.3860    -6.0710    13.8850 ca         1 JIS       0.203900
     21 C14         98.5900   -10.2070    12.6280 ca         1 JIS      -0.042000
     22 C16         91.3150    -9.4210    16.6060 c6         1 JIS       0.212300
     23 C18         97.6670   -12.0150    11.3200 ca         1 JIS      -0.115000
     24 C19         97.3610    -8.1310    12.9590 ca         1 JIS      -0.106000
     25 C23         89.8150    -9.6510    16.4700 c6         1 JIS      -0.097900
     26 C25         99.5530    -8.4110    13.9310 ca         1 JIS      -0.108000
     27 H1          94.5080    -9.7240    10.6010 h1         1 JIS       0.077200
     28 H2          95.2520    -8.2160    11.0920 h1         1 JIS       0.077200
     29 H4          91.3000    -6.0620    16.7200 h1         1 JIS       0.070700
     30 H5          95.6930   -11.6790    10.5220 ha         1 JIS       0.115000
     31 H6          99.5860   -12.0830    12.2450 ha         1 JIS       0.114000
     32 H7         100.5300   -10.2690    13.5630 ha         1 JIS       0.112000
     33 H8          88.9820    -6.4710    17.5510 hc         1 JIS       0.053700
     34 H9          89.1670    -6.9770    15.8790 hc         1 JIS       0.053700
     35 H10         98.3360    -6.6360    14.1130 ha         1 JIS       0.114000
     36 H11         89.2070    -8.7850    18.3420 hc         1 JIS       0.043200
     37 H12         87.9590    -8.7430    17.1100 hc         1 JIS       0.043200
     38 H13         93.5070    -5.0000    13.7600 h5         1 JIS       0.047100
     39 H14         91.8740   -10.1350    16.0120 h1         1 JIS       0.070700
     40 H15         91.6160    -9.5570    17.6500 h1         1 JIS       0.070700
     41 H16         97.7450   -13.0050    10.8900 ha         1 JIS       0.117000
     42 H17         96.4990    -7.4990    12.7940 ha         1 JIS       0.129000
     43 H18         89.5380    -9.5950    15.4130 hc         1 JIS       0.053700
     44 H19         89.5830   -10.6630    16.8080 hc         1 JIS       0.053700
     45 H20        100.3650    -8.0070    14.5220 ha         1 JIS       0.113000
     46 H3          91.2840    -7.1910    18.0720 h1         1 JIS       0.070700
@<TRIPOS>BOND
     1     1    11 ar  
     2     1    17 1   
     3     1    18 ar  
     4     2    12 1   
     5     2    19 1   
     6     2    27 1   
     7     2    28 1   
     8     3    19 ar  
     9     3    21 ar  
    10     3    24 ar  
    11     4     8 1   
    12     4    17 1   
    13     4    29 1   
    14     4    46 1   
    15     5    19 ar  
    16     5    23 ar  
    17     5    30 1   
    18     6    21 ar  
    19     6    23 ar  
    20     6    31 1   
    21     7    21 ar  
    22     7    26 ar  
    23     7    32 1   
    24     8    10 1   
    25     8    33 1   
    26     8    34 1   
    27     9    24 ar  
    28     9    26 ar  
    29     9    35 1   
    30    10    25 1   
    31    10    36 1   
    32    10    37 1   
    33    11    13 ar  
    34    11    15 1   
    35    12    13 1   
    36    12    14 1   
    37    13    16 ar  
    38    14    15 2   
    39    16    20 ar  
    40    17    22 1   
    41    18    20 ar  
    42    20    38 1   
    43    22    25 1   
    44    22    39 1   
    45    22    40 1   
    46    23    41 1   
    47    24    42 1   
    48    25    43 1   
    49    25    44 1   
    50    26    45 1   
@<TRIPOS>SUBSTRUCTURE
     1 JIS         1 TEMP              0 ****  ****    0 ROOT
