@<TRIPOS>MOLECULE
JIT
   25    26     1     0     0
SMALL
No Charge or Current Charge


@<TRIPOS>ATOM
      1 C1         -19.5020    57.7310    49.2250 cx         1 JIT       0.017500
      2 C2         -19.8150    56.9670    47.9290 c6         1 JIT       0.175300
      3 C3         -19.2990    57.6900    46.6450 c6         1 JIT       0.199300
      4 C4         -19.6710    59.2200    46.6610 c6         1 JIT       0.178300
      5 C5         -19.0080    59.9350    47.8800 c6         1 JIT      -0.052700
      6 C6         -19.3440    61.4560    47.9760 c3         1 JIT       0.164600
      7 C7         -19.2480    59.2220    49.2280 cx         1 JIT       0.068500
      8 N8         -20.5450    58.6830    49.6980 n5         1 JIT      -0.739400
      9 O2         -21.2450    56.8770    47.9090 oh         1 JIT      -0.721000
     10 O3         -19.8690    57.0170    45.5040 oh         1 JIT      -0.643000
     11 O4         -19.2520    59.8680    45.4350 oh         1 JIT      -0.726000
     12 O6         -20.7540    61.7180    47.9560 oh         1 JIT      -0.653000
     13 H1         -19.0340    57.1250    50.0030 h1         1 JIT       0.072700
     14 H2         -19.3650    55.9650    47.9920 h1         1 JIT       0.031700
     15 H3         -18.2020    57.6050    46.6170 h1         1 JIT       0.042700
     16 H4         -20.7650    59.2960    46.7720 h1         1 JIT       0.091700
     17 H5         -17.9210    59.9010    47.7220 hc         1 JIT       0.060700
     18 H6         -18.8980    61.8540    48.8970 h1         1 JIT       0.020200
     19 H7         -18.8610    61.9750    47.1370 h1         1 JIT       0.020200
     20 H8         -18.6240    59.6240    50.0290 h1         1 JIT       0.075700
     21 H9         -20.5590    58.7230    50.7310 hn         1 JIT       0.400000
     22 H11        -21.4770    57.5590    48.5970 ho         1 JIT       0.508000
     23 H12        -20.7440    56.7070    45.8330 ho         1 JIT       0.460000
     24 H13        -19.7830    60.6940    45.3630 ho         1 JIT       0.508000
     25 H14        -20.8700    62.6740    48.1500 ho         1 JIT       0.440000
@<TRIPOS>BOND
     1     1     2 1   
     2     1     7 1   
     3     1     8 1   
     4     1    13 1   
     5     2     3 1   
     6     2     9 1   
     7     2    14 1   
     8     3     4 1   
     9     3    10 1   
    10     3    15 1   
    11     4     5 1   
    12     4    11 1   
    13     4    16 1   
    14     5     6 1   
    15     5     7 1   
    16     5    17 1   
    17     6    12 1   
    18     6    18 1   
    19     6    19 1   
    20     7     8 1   
    21     7    20 1   
    22     8    21 1   
    23     9    22 1   
    24    10    23 1   
    25    11    24 1   
    26    12    25 1   
@<TRIPOS>SUBSTRUCTURE
     1 JIT         1 TEMP              0 ****  ****    0 ROOT
