@<TRIPOS>MOLECULE
JIT
   25    26     1     0     0
SMALL
bcc


@<TRIPOS>ATOM
      1 C1         -20.0410    57.9400    49.2390 cx         1 JIT       0.017500
      2 C2         -19.6360    57.1300    48.0390 c6         1 JIT       0.152100
      3 C3         -19.8430    57.8410    46.6840 c6         1 JIT       0.176100
      4 C4         -19.6940    59.3710    46.7200 c6         1 JIT       0.155100
      5 C5         -18.9850    59.8910    47.9760 c6         1 JIT      -0.052700
      6 C6         -18.8590    61.4070    48.0000 c3         1 JIT       0.141400
      7 C7         -19.6780    59.3640    49.2140 cx         1 JIT       0.068500
      8 N8         -21.0730    58.9520    49.0820 n5         1 JIT      -0.684200
      9 O2         -20.3010    55.8870    47.9510 oh         1 JIT      -0.598800
     10 O3         -21.1060    57.5640    46.1240 oh         1 JIT      -0.580800
     11 O4         -19.0170    59.7550    45.5370 oh         1 JIT      -0.603800
     12 O6         -20.1430    61.9870    47.9880 oh         1 JIT      -0.590800
     13 H1         -19.9770    57.4190    50.1920 h1         1 JIT       0.072700
     14 H2         -18.5540    56.9690    48.1440 h1         1 JIT       0.031700
     15 H3         -19.0490    57.4590    46.0250 h1         1 JIT       0.042700
     16 H4         -20.7070    59.7790    46.7210 h1         1 JIT       0.091700
     17 H5         -17.9560    59.5070    47.9880 hc         1 JIT       0.060700
     18 H6         -18.3000    61.6900    48.9030 h1         1 JIT       0.020200
     19 H7         -18.2540    61.7410    47.1470 h1         1 JIT       0.020200
     20 H8         -19.3750    59.8200    50.1530 h1         1 JIT       0.075700
     21 H9         -21.5700    59.0920    49.9520 hn         1 JIT       0.344800
     22 H11        -19.9850    55.3150    48.6570 ho         1 JIT       0.409000
     23 H12        -21.2350    56.6100    46.1460 ho         1 JIT       0.421000
     24 H13        -19.2750    60.6550    45.3170 ho         1 JIT       0.409000
     25 H14        -20.0420    62.9420    47.9900 ho         1 JIT       0.401000
@<TRIPOS>BOND
     1     1     2 1   
     2     1     7 1   
     3     1     8 1   
     4     1    13 1   
     5     2     3 1   
     6     2     9 1   
     7     2    14 1   
     8     3     4 1   
     9     3    10 1   
    10     3    15 1   
    11     4     5 1   
    12     4    11 1   
    13     4    16 1   
    14     5     6 1   
    15     5     7 1   
    16     5    17 1   
    17     6    12 1   
    18     6    18 1   
    19     6    19 1   
    20     7     8 1   
    21     7    20 1   
    22     8    21 1   
    23     9    22 1   
    24    10    23 1   
    25    11    24 1   
    26    12    25 1   
@<TRIPOS>SUBSTRUCTURE
     1 JIT         1 TEMP              0 ****  ****    0 ROOT
