@<TRIPOS>MOLECULE
JIW
   28    28     1     0     0
SMALL
abcg2


@<TRIPOS>ATOM
      1 C1          26.5450    46.4830    -3.0120 c6         1 JIW       0.182300
      2 C2          27.5670    46.5000    -1.8840 c6         1 JIW       0.092300
      3 C3          28.7460    47.4210    -2.1960 c6         1 JIW       0.115300
      4 C4          28.2620    48.8300    -2.5470 c6         1 JIW       0.178300
      5 C5          27.2030    48.8400    -3.6550 c6         1 JIW      -0.060700
      6 C6          27.8030    48.6350    -5.0480 c3         1 JIW       0.182600
      7 C7          26.0420    47.8910    -3.3110 c6         1 JIW       0.183500
      8 O8          28.0140    45.1660    -1.7050 oh         1 JIW      -0.735000
      9 O9          29.5070    46.9360    -3.2750 oh         1 JIW      -0.715000
     10 O10         27.6830    49.4410    -1.4130 oh         1 JIW      -0.718000
     11 O11         27.0880    49.4390    -5.9680 oh         1 JIW      -0.668000
     12 N12         25.0780    47.8330    -4.3990 n8         1 JIW      -0.997200
     13 O1          25.4280    45.6930    -2.6630 oh         1 JIW      -0.723000
     14 H1          27.0220    46.0840    -3.9200 h1         1 JIW       0.060700
     15 H2          27.0730    46.8660    -0.9760 h1         1 JIW       0.060700
     16 H3          29.3730    47.4910    -1.2900 h1         1 JIW       0.022700
     17 H4          29.1290    49.4110    -2.8930 h1         1 JIW       0.053700
     18 H5          26.8000    49.8610    -3.6590 hc         1 JIW       0.079700
     19 H6          27.7730    47.5810    -5.3410 h1         1 JIW       0.030700
     20 H7          28.8600    48.9260    -5.0360 h1         1 JIW       0.030700
     21 H8          25.5870    48.2700    -2.3820 h1         1 JIW       0.037700
     22 H9          28.4040    45.0860    -0.8290 ho         1 JIW       0.509000
     23 H10         29.6420    45.9910    -3.1330 ho         1 JIW       0.521000
     24 H11         28.3510    49.4980    -0.7210 ho         1 JIW       0.504000
     25 H12         27.3780    49.2030    -6.8530 ho         1 JIW       0.444000
     26 H13         24.2450    47.3550    -4.0800 hn         1 JIW       0.407500
     27 H14         24.7880    48.7710    -4.6440 hn         1 JIW       0.407500
     28 H16         25.7430    44.8030    -2.4710 ho         1 JIW       0.516000
@<TRIPOS>BOND
     1     1     2 1   
     2     1     7 1   
     3     1    13 1   
     4     1    14 1   
     5     2     3 1   
     6     2     8 1   
     7     2    15 1   
     8     3     4 1   
     9     3     9 1   
    10     3    16 1   
    11     4     5 1   
    12     4    10 1   
    13     4    17 1   
    14     5     6 1   
    15     5     7 1   
    16     5    18 1   
    17     6    11 1   
    18     6    19 1   
    19     6    20 1   
    20     7    12 1   
    21     7    21 1   
    22     8    22 1   
    23     9    23 1   
    24    10    24 1   
    25    11    25 1   
    26    12    26 1   
    27    12    27 1   
    28    13    28 1   
@<TRIPOS>SUBSTRUCTURE
     1 JIW         1 TEMP              0 ****  ****    0 ROOT
