@<TRIPOS>MOLECULE
JIW
   28    28     1     0     0
SMALL
No Charge or Current Charge


@<TRIPOS>ATOM
      1 C1          26.5150    46.4770    -3.0800 c6         1 JIW       0.182300
      2 C2          27.5520    46.4520    -1.9160 c6         1 JIW       0.092300
      3 C3          28.7520    47.4040    -2.2090 c6         1 JIW       0.115300
      4 C4          28.2570    48.8640    -2.5270 c6         1 JIW       0.178300
      5 C5          27.1980    48.9140    -3.6780 c6         1 JIW      -0.060700
      6 C6          27.8630    48.6830    -5.0790 c3         1 JIW       0.182600
      7 C7          26.0130    47.9410    -3.3450 c6         1 JIW       0.183500
      8 O8          28.0280    45.1000    -1.7070 oh         1 JIW      -0.735000
      9 O9          29.5360    46.8420    -3.2720 oh         1 JIW      -0.715000
     10 O10         27.6920    49.4630    -1.3450 oh         1 JIW      -0.718000
     11 O11         27.2130    49.4120    -6.1320 oh         1 JIW      -0.668000
     12 N12         24.9270    47.9650    -4.3620 n8         1 JIW      -0.997200
     13 O1          25.4270    45.5880    -2.7550 oh         1 JIW      -0.723000
     14 H1          27.0130    46.1130    -3.9910 h1         1 JIW       0.060700
     15 H2          27.0460    46.8140    -1.0080 h1         1 JIW       0.060700
     16 H3          29.3740    47.4510    -1.3030 h1         1 JIW       0.022700
     17 H4          29.1310    49.4570    -2.8390 h1         1 JIW       0.053700
     18 H5          26.8050    49.9380    -3.7050 hc         1 JIW       0.079700
     19 H6          27.8790    47.6100    -5.3100 h1         1 JIW       0.030700
     20 H7          28.9100    49.0110    -5.0230 h1         1 JIW       0.030700
     21 H8          25.5460    48.2850    -2.4090 h1         1 JIW       0.037700
     22 H9          28.3920    45.0540    -0.7890 ho         1 JIW       0.509000
     23 H10         29.4680    45.8660    -3.1280 ho         1 JIW       0.521000
     24 H11         28.4450    49.7030    -0.7550 ho         1 JIW       0.504000
     25 H12         27.6330    49.1300    -6.9750 ho         1 JIW       0.444000
     26 H13         24.3160    47.1660    -4.1540 hn         1 JIW       0.407500
     27 H14         24.3300    48.7800    -4.1880 hn         1 JIW       0.407500
     28 H16         25.8740    44.8220    -2.3200 ho         1 JIW       0.516000
@<TRIPOS>BOND
     1     1     2 1   
     2     1     7 1   
     3     1    13 1   
     4     1    14 1   
     5     2     3 1   
     6     2     8 1   
     7     2    15 1   
     8     3     4 1   
     9     3     9 1   
    10     3    16 1   
    11     4     5 1   
    12     4    10 1   
    13     4    17 1   
    14     5     6 1   
    15     5     7 1   
    16     5    18 1   
    17     6    11 1   
    18     6    19 1   
    19     6    20 1   
    20     7    12 1   
    21     7    21 1   
    22     8    22 1   
    23     9    23 1   
    24    10    24 1   
    25    11    25 1   
    26    12    26 1   
    27    12    27 1   
    28    13    28 1   
@<TRIPOS>SUBSTRUCTURE
     1 JIW         1 TEMP              0 ****  ****    0 ROOT
