@<TRIPOS>MOLECULE
JIY
   44    47     1     0     0
SMALL
abcg2


@<TRIPOS>ATOM
      1 C1          94.5920   -12.8870     9.6160 ca         1 JIY      -0.109200
      2 C2          93.3470   -12.3460     9.2620 ca         1 JIY       0.110400
      3 C3          95.3910   -13.5920     8.7190 ca         1 JIY      -0.069000
      4 N4          94.7520   -12.5580    10.9440 na         1 JIY      -0.299600
      5 C5          92.8440   -12.4910     7.9640 ca         1 JIY      -0.107000
      6 N6          92.7830   -11.7140    10.3490 nc         1 JIY      -0.602100
      7 C7          94.8870   -13.7330     7.4450 ca         1 JIY      -0.120300
      8 C8          93.6490   -11.8630    11.3130 cd         1 JIY       0.435700
      9 C9          93.6390   -13.1880     7.0720 ca         1 JIY       0.242000
     10 C10         95.4880   -14.3900     6.2330 c5         1 JIY      -0.033100
     11 S11         93.5020   -11.2560    12.9410 ss         1 JIY      -0.245200
     12 N12         93.3940   -13.4420     5.7270 nu         1 JIY      -0.908200
     13 C13         94.2680   -14.5380     5.3130 c5         1 JIY       0.178800
     14 C14         91.8630   -10.4590    12.8540 c3         1 JIY       0.021300
     15 C15         91.6720    -9.6770    14.1210 ca         1 JIY       0.341300
     16 C16         92.1220    -8.3570    14.2220 ca         1 JIY      -0.116300
     17 N17         91.0660   -10.3180    15.1130 nb         1 JIY      -0.656000
     18 C18         91.8760    -7.7010    15.4280 ca         1 JIY       0.128100
     19 C19         92.8370    -7.6840    13.0880 c3         1 JIY      -0.051800
     20 C20         90.8690    -9.6770    16.2550 ca         1 JIY       0.339900
     21 C21         91.2430    -8.3600    16.4820 ca         1 JIY      -0.130300
     22 O22         92.2740    -6.4160    15.6100 os         1 JIY      -0.361100
     23 C23         90.9900    -7.6890    17.7960 c3         1 JIY      -0.037800
     24 C24         91.3600    -5.4450    15.1130 c3         1 JIY       0.149900
     25 H1          96.3480   -14.0110     9.0050 ha         1 JIY       0.119000
     26 H2          95.5420   -12.7870    11.5270 hn         1 JIY       0.364000
     27 H3          91.8820   -12.0800     7.6840 ha         1 JIY       0.132000
     28 H5          96.2410   -13.7370     5.7790 hc         1 JIY       0.057700
     29 H6          95.9690   -15.3450     6.4410 hc         1 JIY       0.057700
     30 H7          92.4250   -13.5350     5.4620 hn         1 JIY       0.451000
     31 H8          94.5240   -14.4630     4.2560 h1         1 JIY       0.041700
     32 H9          93.7930   -15.5130     5.4760 h1         1 JIY       0.041700
     33 H10         91.8300    -9.8300    11.9670 h1         1 JIY       0.097200
     34 H11         91.1000   -11.2310    12.7690 h1         1 JIY       0.097200
     35 H12         92.1470    -7.4200    12.2840 hc         1 JIY       0.053700
     36 H13         93.3340    -6.7710    13.4090 hc         1 JIY       0.053700
     37 H14         93.5970    -8.3370    12.6600 hc         1 JIY       0.053700
     38 H15         90.3750   -10.2360    17.0430 h4         1 JIY       0.022100
     39 H16         90.3260    -6.8300    17.6940 hc         1 JIY       0.047367
     40 H17         90.5260    -8.3800    18.4970 hc         1 JIY       0.047367
     41 H18         91.9160    -7.3290    18.2460 hc         1 JIY       0.047367
     42 H19         91.7850    -4.4670    15.3280 h1         1 JIY       0.038700
     43 H20         91.2170    -5.5370    14.0330 h1         1 JIY       0.038700
     44 H21         90.3860    -5.5230    15.6030 h1         1 JIY       0.038700
@<TRIPOS>BOND
     1     1     2 ar  
     2     1     3 ar  
     3     1     4 1   
     4     2     5 ar  
     5     2     6 1   
     6     3     7 ar  
     7     3    25 1   
     8     4     8 1   
     9     4    26 1   
    10     5     9 ar  
    11     5    27 1   
    12     6     8 2   
    13     7     9 ar  
    14     7    10 1   
    15     8    11 1   
    16     9    12 1   
    17    10    13 1   
    18    10    28 1   
    19    10    29 1   
    20    11    14 1   
    21    12    13 1   
    22    12    30 1   
    23    13    31 1   
    24    13    32 1   
    25    14    15 1   
    26    14    33 1   
    27    14    34 1   
    28    15    16 ar  
    29    15    17 ar  
    30    16    18 ar  
    31    16    19 1   
    32    17    20 ar  
    33    18    21 ar  
    34    18    22 1   
    35    19    35 1   
    36    19    36 1   
    37    19    37 1   
    38    20    21 ar  
    39    20    38 1   
    40    21    23 1   
    41    22    24 1   
    42    23    39 1   
    43    23    40 1   
    44    23    41 1   
    45    24    42 1   
    46    24    43 1   
    47    24    44 1   
@<TRIPOS>SUBSTRUCTURE
     1 JIY         1 TEMP              0 ****  ****    0 ROOT
