@<TRIPOS>MOLECULE
JIY
   44    47     1     0     0
SMALL
No Charge or Current Charge


@<TRIPOS>ATOM
      1 C1          94.6600   -12.8220     9.4640 ca         1 JIY      -0.109200
      2 C2          93.3970   -12.3700     9.1470 ca         1 JIY       0.110400
      3 C3          95.4500   -13.5630     8.5690 ca         1 JIY      -0.069000
      4 N4          94.9550   -12.4300    10.7420 na         1 JIY      -0.299600
      5 C5          92.8360   -12.6330     7.8860 ca         1 JIY      -0.107000
      6 N6          92.8240   -11.6700    10.1970 nc         1 JIY      -0.602100
      7 C7          94.8830   -13.8240     7.3070 ca         1 JIY      -0.120300
      8 C8          93.8010   -11.7440    11.1130 cd         1 JIY       0.435700
      9 C9          93.6200   -13.3660     6.9790 ca         1 JIY       0.242000
     10 C10         95.4810   -14.6020     6.1670 c5         1 JIY      -0.033100
     11 S11         93.7120   -11.0290    12.7220 ss         1 JIY      -0.245200
     12 N12         93.2680   -13.7390     5.6920 nu         1 JIY      -0.908200
     13 C13         94.1820   -14.8710     5.3060 c5         1 JIY       0.178800
     14 C14         92.0270   -10.2560    12.7470 c3         1 JIY       0.021300
     15 C15         91.7410    -9.5480    14.0680 ca         1 JIY       0.341300
     16 C16         92.1590    -8.2170    14.3210 ca         1 JIY      -0.116300
     17 N17         91.0550   -10.2860    14.9730 nb         1 JIY      -0.656000
     18 C18         91.8230    -7.6490    15.5710 ca         1 JIY       0.128100
     19 C19         92.9500    -7.4200    13.2770 c3         1 JIY      -0.051800
     20 C20         90.7610    -9.7300    16.1680 ca         1 JIY       0.339900
     21 C21         91.1220    -8.4190    16.5170 ca         1 JIY      -0.130300
     22 O22         92.1750    -6.3560    15.8800 os         1 JIY      -0.361100
     23 C23         90.7520    -7.8530    17.8840 c3         1 JIY      -0.037800
     24 C24         91.3620    -5.2750    15.3970 c3         1 JIY       0.149900
     25 H1          96.4430   -13.9190     8.8360 ha         1 JIY       0.119000
     26 H2          95.7890   -12.5860    11.2930 hn         1 JIY       0.364000
     27 H3          91.8440   -12.2800     7.6240 ha         1 JIY       0.132000
     28 H5          96.2130   -14.0030     5.6140 hc         1 JIY       0.057700
     29 H6          95.9710   -15.5310     6.4790 hc         1 JIY       0.057700
     30 H7          92.2660   -13.7690     5.4870 hn         1 JIY       0.451000
     31 H8          94.3950   -14.9080     4.2280 h1         1 JIY       0.041700
     32 H9          93.7440   -15.8380     5.5910 h1         1 JIY       0.041700
     33 H10         91.9420    -9.5440    11.9170 h1         1 JIY       0.097200
     34 H11         91.2790   -11.0410    12.5830 h1         1 JIY       0.097200
     35 H12         92.2850    -7.0260    12.4990 hc         1 JIY       0.053700
     36 H13         93.4830    -6.5700    13.7180 hc         1 JIY       0.053700
     37 H14         93.7120    -8.0360    12.7860 hc         1 JIY       0.053700
     38 H15         90.2130   -10.3610    16.8660 h4         1 JIY       0.022100
     39 H16         90.0230    -7.0400    17.7880 hc         1 JIY       0.047367
     40 H17         90.3100    -8.6180    18.5340 hc         1 JIY       0.047367
     41 H18         91.6340    -7.4540    18.3980 hc         1 JIY       0.047367
     42 H19         91.7710    -4.3120    15.7260 h1         1 JIY       0.038700
     43 H20         91.3210    -5.2740    14.3010 h1         1 JIY       0.038700
     44 H21         90.3370    -5.3610    15.7800 h1         1 JIY       0.038700
@<TRIPOS>BOND
     1     1     2 ar  
     2     1     3 ar  
     3     1     4 1   
     4     2     5 ar  
     5     2     6 1   
     6     3     7 ar  
     7     3    25 1   
     8     4     8 1   
     9     4    26 1   
    10     5     9 ar  
    11     5    27 1   
    12     6     8 2   
    13     7     9 ar  
    14     7    10 1   
    15     8    11 1   
    16     9    12 1   
    17    10    13 1   
    18    10    28 1   
    19    10    29 1   
    20    11    14 1   
    21    12    13 1   
    22    12    30 1   
    23    13    31 1   
    24    13    32 1   
    25    14    15 1   
    26    14    33 1   
    27    14    34 1   
    28    15    16 ar  
    29    15    17 ar  
    30    16    18 ar  
    31    16    19 1   
    32    17    20 ar  
    33    18    21 ar  
    34    18    22 1   
    35    19    35 1   
    36    19    36 1   
    37    19    37 1   
    38    20    21 ar  
    39    20    38 1   
    40    21    23 1   
    41    22    24 1   
    42    23    39 1   
    43    23    40 1   
    44    23    41 1   
    45    24    42 1   
    46    24    43 1   
    47    24    44 1   
@<TRIPOS>SUBSTRUCTURE
     1 JIY         1 TEMP              0 ****  ****    0 ROOT
