@<TRIPOS>MOLECULE
JIZ
   49    52     1     0     0
SMALL
No Charge or Current Charge


@<TRIPOS>ATOM
      1 C10        117.6330   123.4020   138.4250 c          1 JIZ       0.537600
      2 C13        120.4390   118.6450   138.1050 cc         1 JIZ       0.222500
      3 C15        120.7790   117.6610   139.1930 c          1 JIZ       0.539600
      4 C01        120.8530   117.4400   141.7210 c3         1 JIZ       0.106400
      5 C02        120.0930   118.0140   142.9040 cc         1 JIZ       0.413700
      6 C03        118.8540   119.4380   144.1120 cd         1 JIZ       0.222500
      7 C04        119.0030   118.4140   145.0260 cc         1 JIZ      -0.198000
      8 C05        118.0670   120.6720   144.4750 c          1 JIZ       0.537600
      9 C06        117.3540   122.8950   143.4670 c3         1 JIZ       0.088400
     10 C07        117.0440   123.4060   142.0700 cc         1 JIZ       0.411700
     11 C08        117.1760   123.6270   139.8450 cd         1 JIZ       0.219500
     12 C09        116.1940   124.5570   140.1220 cc         1 JIZ      -0.201000
     13 C11        119.2730   121.9880   137.0990 c3         1 JIZ       0.088400
     14 C12        119.7700   120.5510   137.1780 cd         1 JIZ       0.411700
     15 C14        120.5610   118.2940   136.7790 cd         1 JIZ      -0.203000
     16 C16        118.1870   123.9100   144.2820 c3         1 JIZ      -0.112100
     17 C18        122.3750   117.3460   141.9960 c3         1 JIZ       0.053600
     18 N01        120.5850   118.1620   140.4610 ns         1 JIZ      -0.481900
     19 N02        119.4830   119.1960   142.8840 nd         1 JIZ      -0.628000
     20 N03        118.0260   121.5840   143.4430 ns         1 JIZ      -0.482900
     21 N04        117.6630   122.9650   140.9780 nd         1 JIZ      -0.646000
     22 N05        118.6010   122.4240   138.3350 ns         1 JIZ      -0.482900
     23 N06        119.9890   119.9350   138.3380 nc         1 JIZ      -0.641000
     24 O01        117.5140   120.8710   145.5510 o          1 JIZ      -0.609100
     25 O02        117.2100   124.0000   137.4410 o          1 JIZ      -0.607100
     26 O03        121.1840   116.5170   139.0070 o          1 JIZ      -0.610100
     27 S01        119.9410   117.0990   144.3810 ss         1 JIZ       0.003600
     28 S02        115.8290   124.6330   141.8220 ss         1 JIZ       0.011600
     29 S03        120.0910   119.6140   135.7240 ss         1 JIZ       0.013600
     30 S04        123.2440   118.9860   142.1160 sh         1 JIZ      -0.429800
     31 H4         120.4840   116.4140   141.5910 h1         1 JIZ       0.088700
     32 H5         118.6170   118.3550   146.0350 h4         1 JIZ       0.183000
     33 H6         116.3910   122.7630   143.9780 h1         1 JIZ       0.086700
     34 H7         115.6610   125.1960   139.4300 h4         1 JIZ       0.182000
     35 H8         118.5310   122.0170   136.2900 h1         1 JIZ       0.088700
     36 H9         120.8910   117.3470   136.3700 h4         1 JIZ       0.182000
     37 H11        118.3530   123.5490   145.3040 hc         1 JIZ       0.051700
     38 H12        119.1640   124.0750   143.8120 hc         1 JIZ       0.051700
     39 H13        122.8470   116.7750   141.1860 h1         1 JIZ       0.076700
     40 H14        122.5470   116.7920   142.9280 h1         1 JIZ       0.076700
     41 H15        120.2400   119.1170   140.5130 hn         1 JIZ       0.367500
     42 H16        118.5020   121.3060   142.5890 hn         1 JIZ       0.358500
     43 H17        118.8590   121.9750   139.2100 hn         1 JIZ       0.356500
     44 H18        124.4870   118.4850   142.3200 hs         1 JIZ       0.206800
     45 H10        117.6690   124.8740   144.3450 hc         1 JIZ       0.051700
     46 C17        120.4060   122.9710   136.7330 c3         1 JIZ      -0.112100
     47 H1         120.0180   123.9900   136.6240 hc         1 JIZ       0.051367
     48 H2         121.1800   122.9780   137.5110 hc         1 JIZ       0.051367
     49 H3         120.8760   122.6850   135.7840 hc         1 JIZ       0.051367
@<TRIPOS>BOND
     1     1    11 1   
     2     1    22 1   
     3     1    25 2   
     4     2     3 1   
     5     2    15 2   
     6     2    23 1   
     7     3    18 1   
     8     3    26 2   
     9     4     5 1   
    10     4    17 1   
    11     4    18 1   
    12     4    31 1   
    13     5    19 2   
    14     5    27 1   
    15     6     7 2   
    16     6     8 1   
    17     6    19 1   
    18     7    27 1   
    19     7    32 1   
    20     8    20 1   
    21     8    24 2   
    22     9    10 1   
    23     9    16 1   
    24     9    20 1   
    25     9    33 1   
    26    10    21 2   
    27    10    28 1   
    28    11    12 2   
    29    11    21 1   
    30    12    28 1   
    31    12    34 1   
    32    13    14 1   
    33    13    22 1   
    34    13    35 1   
    35    13    46 1   
    36    14    23 2   
    37    14    29 1   
    38    15    29 1   
    39    15    36 1   
    40    16    37 1   
    41    16    38 1   
    42    16    45 1   
    43    17    30 1   
    44    17    39 1   
    45    17    40 1   
    46    18    41 1   
    47    20    42 1   
    48    22    43 1   
    49    30    44 1   
    50    46    47 1   
    51    46    48 1   
    52    46    49 1   
@<TRIPOS>SUBSTRUCTURE
     1 JIZ         1 TEMP              0 ****  ****    0 ROOT
