@<TRIPOS>MOLECULE
JIZ
   49    52     1     0     0
SMALL
bcc


@<TRIPOS>ATOM
      1 C10        117.6320   123.2890   138.4900 c          1 JIZ       0.604600
      2 C13        120.3260   118.6460   138.1280 cc         1 JIZ       0.287800
      3 C15        120.6800   117.7240   139.2340 c          1 JIZ       0.606600
      4 C01        120.8550   117.4910   141.6500 c3         1 JIZ       0.106400
      5 C02        120.0670   118.0310   142.8090 cc         1 JIZ       0.413700
      6 C03        118.8470   119.3960   144.0220 cd         1 JIZ       0.287800
      7 C04        118.9980   118.4080   144.9440 cc         1 JIZ      -0.136400
      8 C05        118.0830   120.6400   144.2850 c          1 JIZ       0.604600
      9 C06        117.4690   122.8270   143.4050 c3         1 JIZ       0.088400
     10 C07        117.0700   123.2960   142.0370 cc         1 JIZ       0.411700
     11 C08        117.1190   123.5600   139.8560 cd         1 JIZ       0.284800
     12 C09        116.1300   124.4510   140.1280 cc         1 JIZ      -0.139400
     13 C11        119.2860   122.0140   137.2220 c3         1 JIZ       0.088400
     14 C12        119.6740   120.5650   137.2820 cd         1 JIZ       0.411700
     15 C14        120.3950   118.3020   136.8150 cd         1 JIZ      -0.141400
     16 C16        118.3830   123.8580   144.0740 c3         1 JIZ      -0.112100
     17 C18        122.3610   117.4990   141.9390 c3         1 JIZ       0.005700
     18 N01        120.5230   118.2400   140.4660 ns         1 JIZ      -0.548900
     19 N02        119.4610   119.1680   142.8220 nd         1 JIZ      -0.628000
     20 N03        118.1030   121.5360   143.2870 ns         1 JIZ      -0.549900
     21 N04        117.6400   122.9180   140.9440 nd         1 JIZ      -0.646000
     22 N05        118.5960   122.3580   138.4400 ns         1 JIZ      -0.549900
     23 N06        119.9190   119.9250   138.3750 nc         1 JIZ      -0.641000
     24 O01        117.4950   120.8060   145.3430 o          1 JIZ      -0.609100
     25 O02        117.1920   123.8820   137.5170 o          1 JIZ      -0.607100
     26 O03        121.0850   116.5930   139.0150 o          1 JIZ      -0.610100
     27 S01        119.9320   117.1440   144.2860 ss         1 JIZ      -0.141300
     28 S02        115.8340   124.4810   141.8080 ss         1 JIZ      -0.133300
     29 S03        119.9240   119.6290   135.8520 ss         1 JIZ      -0.131300
     30 S04        122.9550   119.2180   142.0540 sh         1 JIZ      -0.381900
     31 H4         120.5710   116.4460   141.4970 h1         1 JIZ       0.088700
     32 H5         118.6090   118.3650   145.9490 h4         1 JIZ       0.201000
     33 H6         116.5680   122.7110   144.0120 h1         1 JIZ       0.086700
     34 H7         115.5740   125.0680   139.4400 h4         1 JIZ       0.200000
     35 H8         118.5970   122.1620   136.3880 h1         1 JIZ       0.088700
     36 H9         120.6860   117.3580   136.3830 h4         1 JIZ       0.200000
     37 H11        118.6630   123.5160   145.0700 hc         1 JIZ       0.051700
     38 H12        119.2880   124.0070   143.4870 hc         1 JIZ       0.051700
     39 H13        122.8790   116.9730   141.1390 h1         1 JIZ       0.076700
     40 H14        122.5640   116.9770   142.8730 h1         1 JIZ       0.076700
     41 H15        120.1630   119.1800   140.5650 hn         1 JIZ       0.367500
     42 H16        118.6430   121.3360   142.4570 hn         1 JIZ       0.358500
     43 H17        118.9210   121.9490   139.3050 hn         1 JIZ       0.356500
     44 H18        124.0830   118.9530   142.7200 hs         1 JIZ       0.206800
     45 H10        117.8740   124.8160   144.1780 hc         1 JIZ       0.051700
     46 C17        120.5260   122.8850   137.0030 c3         1 JIZ      -0.112100
     47 H1         120.2380   123.9340   136.9520 hc         1 JIZ       0.051367
     48 H2         121.2340   122.7540   137.8210 hc         1 JIZ       0.051367
     49 H3         121.0230   122.6240   136.0680 hc         1 JIZ       0.051367
@<TRIPOS>BOND
     1     1    11 1   
     2     1    22 1   
     3     1    25 2   
     4     2     3 1   
     5     2    15 2   
     6     2    23 1   
     7     3    18 1   
     8     3    26 2   
     9     4     5 1   
    10     4    17 1   
    11     4    18 1   
    12     4    31 1   
    13     5    19 2   
    14     5    27 1   
    15     6     7 2   
    16     6     8 1   
    17     6    19 1   
    18     7    27 1   
    19     7    32 1   
    20     8    20 1   
    21     8    24 2   
    22     9    10 1   
    23     9    16 1   
    24     9    20 1   
    25     9    33 1   
    26    10    21 2   
    27    10    28 1   
    28    11    12 2   
    29    11    21 1   
    30    12    28 1   
    31    12    34 1   
    32    13    14 1   
    33    13    22 1   
    34    13    35 1   
    35    13    46 1   
    36    14    23 2   
    37    14    29 1   
    38    15    29 1   
    39    15    36 1   
    40    16    37 1   
    41    16    38 1   
    42    16    45 1   
    43    17    30 1   
    44    17    39 1   
    45    17    40 1   
    46    18    41 1   
    47    20    42 1   
    48    22    43 1   
    49    30    44 1   
    50    46    47 1   
    51    46    48 1   
    52    46    49 1   
@<TRIPOS>SUBSTRUCTURE
     1 JIZ         1 TEMP              0 ****  ****    0 ROOT
