@<TRIPOS>MOLECULE
JJ1
   88    88     1     0     0
SMALL
No Charge or Current Charge


@<TRIPOS>ATOM
      1 O4           0.2250     0.8270     0.4950 o          1 JJ1      -0.605100
      2 C6           0.5500     1.0750    -0.6620 c          1 JJ1       0.607100
      3 N1           1.7630     0.6610    -1.1790 ns         1 JJ1      -0.490900
      4 C1           2.7980    -0.0940    -0.4340 c3         1 JJ1       0.030700
      5 C2           2.6790    -1.6220    -0.6890 c3         1 JJ1      -0.087400
      6 C3           1.3370    -2.2500    -0.2410 c3         1 JJ1      -0.075400
      7 C4           1.2930    -3.7830    -0.4340 c3         1 JJ1      -0.078400
      8 C5          -0.0480    -4.4030     0.0110 c3         1 JJ1       0.149800
      9 N           -0.0580    -5.8650    -0.1810 n8         1 JJ1      -0.997200
     10 C            4.2160     0.4330    -0.8070 c          1 JJ1       0.587100
     11 N3           5.2360     0.0130     0.0200 ns         1 JJ1      -0.500900
     12 C19          6.6410     0.3800    -0.1530 c3         1 JJ1       0.104000
     13 C20          7.5530    -0.4000     0.8160 c3         1 JJ1      -0.092400
     14 C21          9.0810    -0.1470     0.6350 c6         1 JJ1      -0.056700
     15 C26          9.9080    -1.0930     1.5520 c6         1 JJ1      -0.072400
     16 C25         11.4310    -0.8700     1.3820 c6         1 JJ1      -0.072900
     17 C24         11.8120     0.6070     1.6440 c6         1 JJ1      -0.075400
     18 C23         11.0020     1.5590     0.7320 c6         1 JJ1      -0.072900
     19 C22          9.4780     1.3370     0.8970 c6         1 JJ1      -0.072400
     20 O            4.4270     1.1720    -1.7620 o          1 JJ1      -0.612100
     21 C7          -0.3680     1.8460    -1.6510 c3         1 JJ1       0.038700
     22 C8           0.2780     3.1780    -2.1200 c3         1 JJ1       0.142600
     23 O1           0.4660     4.0760    -1.0140 oh         1 JJ1      -0.656000
     24 N2          -1.7140     2.0550    -1.0600 ns         1 JJ1      -0.496900
     25 C9          -2.8490     2.3710    -1.7670 c          1 JJ1       0.602100
     26 O3          -2.8480     2.4870    -2.9840 o          1 JJ1      -0.616100
     27 C10         -4.1050     2.5940    -0.9180 c3         1 JJ1      -0.154400
     28 C11         -5.0950     1.4120    -1.0460 c3         1 JJ1      -0.065400
     29 C12         -6.3720     1.6010    -0.1980 c3         1 JJ1      -0.076400
     30 C13         -7.3610     0.4220    -0.3250 c3         1 JJ1      -0.074400
     31 C14         -8.6380     0.6100     0.5230 c3         1 JJ1      -0.074400
     32 C15         -9.6280    -0.5680     0.3950 c3         1 JJ1      -0.074400
     33 C16        -10.9050    -0.3790     1.2440 c3         1 JJ1      -0.074400
     34 C17        -11.8960    -1.5580     1.1170 c3         1 JJ1      -0.082400
     35 C18        -13.1690    -1.3670     1.9650 c3         1 JJ1       0.163600
     36 O2         -14.0360    -2.4930     1.7970 oh         1 JJ1      -0.662000
     37 H1           1.9720     0.9290    -2.1340 hn         1 JJ1       0.333500
     38 H7          -0.4800     1.1980    -2.5310 h1         1 JJ1       0.087700
     39 HA           2.6740     0.0950     0.6410 h1         1 JJ1       0.090700
     40 H21C         2.8290    -1.8190    -1.7580 hc         1 JJ1       0.050200
     41 H22C         3.4920    -2.1360    -0.1610 hc         1 JJ1       0.050200
     42 H31C         1.1640    -2.0150     0.8170 hc         1 JJ1       0.047200
     43 H32C         0.5130    -1.8010    -0.8100 hc         1 JJ1       0.047200
     44 H41C         1.4680    -4.0170    -1.4910 hc         1 JJ1       0.045200
     45 H42C         2.1100    -4.2410     0.1390 hc         1 JJ1       0.045200
     46 H51C        -0.2210    -4.1870     1.0740 h1         1 JJ1       0.028200
     47 H52C        -0.8700    -3.9650    -0.5720 h1         1 JJ1       0.028200
     48 HN1         -0.9870    -6.2280     0.0660 hn         1 JJ1       0.392000
     49 HN2          0.0210    -6.0700    -1.1850 hn         1 JJ1       0.392000
     50 H3           4.9840    -0.5940     0.7920 hn         1 JJ1       0.317500
     51 H191         6.9390     0.1660    -1.1880 h1         1 JJ1       0.053700
     52 H192         6.7420     1.4600     0.0200 h1         1 JJ1       0.053700
     53 H201         7.2580    -0.1600     1.8450 hc         1 JJ1       0.043700
     54 H202         7.3500    -1.4690     0.6810 hc         1 JJ1       0.043700
     55 H21          9.3160    -0.3910    -0.4110 hc         1 JJ1       0.048700
     56 H261         9.6300    -0.9310     2.6030 hc         1 JJ1       0.039450
     57 H262         9.6670    -2.1410     1.3250 hc         1 JJ1       0.039450
     58 H221         8.9470     2.0030     0.2050 hc         1 JJ1       0.039450
     59 H222         9.1710     1.6310     1.9100 hc         1 JJ1       0.039450
     60 H251        11.9830    -1.5250     2.0700 hc         1 JJ1       0.039450
     61 H252        11.7360    -1.1570     0.3660 hc         1 JJ1       0.039450
     62 H241        11.6270     0.8560     2.6980 hc         1 JJ1       0.039200
     63 H242        12.8880     0.7510     1.4730 hc         1 JJ1       0.039200
     64 H231        11.2540     2.6020     0.9660 hc         1 JJ1       0.039450
     65 H232        11.2870     1.3970    -0.3170 hc         1 JJ1       0.039450
     66 H81C         1.2400     2.9660    -2.6050 h1         1 JJ1       0.038200
     67 H82C        -0.3690     3.6420    -2.8760 h1         1 JJ1       0.038200
     68 H2          -1.8050     1.9850    -0.0520 hn         1 JJ1       0.343500
     69 HB           0.8110     4.9210    -1.3810 ho         1 JJ1       0.447000
     70 H101        -3.8280     2.7020     0.1380 hc         1 JJ1       0.059200
     71 H102        -4.6050     3.5060    -1.2650 hc         1 JJ1       0.059200
     72 H111        -5.3770     1.2900    -2.1000 hc         1 JJ1       0.054700
     73 H112        -4.5920     0.4860    -0.7410 hc         1 JJ1       0.054700
     74 H121        -6.0900     1.7220     0.8560 hc         1 JJ1       0.036200
     75 H122        -6.8740     2.5270    -0.5030 hc         1 JJ1       0.036200
     76 H131        -7.6440     0.3010    -1.3790 hc         1 JJ1       0.040200
     77 H132        -6.8590    -0.5050    -0.0200 hc         1 JJ1       0.040200
     78 H141        -8.3560     0.7310     1.5760 hc         1 JJ1       0.036700
     79 H142        -9.1400     1.5370     0.2180 hc         1 JJ1       0.036700
     80 H151        -9.9100    -0.6890    -0.6580 hc         1 JJ1       0.039700
     81 H152        -9.1260    -1.4950     0.7010 hc         1 JJ1       0.039700
     82 H161       -10.6230    -0.2590     2.2980 hc         1 JJ1       0.036700
     83 H162       -11.4070     0.5470     0.9390 hc         1 JJ1       0.036700
     84 H171       -12.1810    -1.6780     0.0640 hc         1 JJ1       0.052700
     85 H172       -11.3960    -2.4850     1.4240 hc         1 JJ1       0.052700
     86 H181       -12.8890    -1.2570     3.0210 h1         1 JJ1       0.014700
     87 H182       -13.6790    -0.4450     1.6530 h1         1 JJ1       0.014700
     88 HC         -14.8290    -2.3270     2.3540 ho         1 JJ1       0.442000
@<TRIPOS>BOND
     1     1     2 2   
     2     2     3 1   
     3     2    21 1   
     4     3     4 1   
     5     3    37 1   
     6     4     5 1   
     7     4    10 1   
     8     4    39 1   
     9     5     6 1   
    10     5    40 1   
    11     5    41 1   
    12     6     7 1   
    13     6    42 1   
    14     6    43 1   
    15     7     8 1   
    16     7    44 1   
    17     7    45 1   
    18     8     9 1   
    19     8    46 1   
    20     8    47 1   
    21     9    48 1   
    22     9    49 1   
    23    10    11 1   
    24    10    20 2   
    25    11    12 1   
    26    11    50 1   
    27    12    13 1   
    28    12    51 1   
    29    12    52 1   
    30    13    14 1   
    31    13    53 1   
    32    13    54 1   
    33    14    15 1   
    34    14    19 1   
    35    14    55 1   
    36    15    16 1   
    37    15    56 1   
    38    15    57 1   
    39    16    17 1   
    40    16    60 1   
    41    16    61 1   
    42    17    18 1   
    43    17    62 1   
    44    17    63 1   
    45    18    19 1   
    46    18    64 1   
    47    18    65 1   
    48    19    58 1   
    49    19    59 1   
    50    21    22 1   
    51    21    24 1   
    52    21    38 1   
    53    22    23 1   
    54    22    66 1   
    55    22    67 1   
    56    23    69 1   
    57    24    25 1   
    58    24    68 1   
    59    25    26 2   
    60    25    27 1   
    61    27    28 1   
    62    27    70 1   
    63    27    71 1   
    64    28    29 1   
    65    28    72 1   
    66    28    73 1   
    67    29    30 1   
    68    29    74 1   
    69    29    75 1   
    70    30    31 1   
    71    30    76 1   
    72    30    77 1   
    73    31    32 1   
    74    31    78 1   
    75    31    79 1   
    76    32    33 1   
    77    32    80 1   
    78    32    81 1   
    79    33    34 1   
    80    33    82 1   
    81    33    83 1   
    82    34    35 1   
    83    34    84 1   
    84    34    85 1   
    85    35    36 1   
    86    35    86 1   
    87    35    87 1   
    88    36    88 1   
@<TRIPOS>SUBSTRUCTURE
     1 JJ1         1 TEMP              0 ****  ****    0 ROOT
