@<TRIPOS>MOLECULE
JJ1
   88    88     1     0     0
SMALL
bcc


@<TRIPOS>ATOM
      1 O4           0.6430    -0.1400     0.9780 o          1 JJ1      -0.605100
      2 C6           0.7910     0.1250    -0.2050 c          1 JJ1       0.674100
      3 N1           1.8670    -0.2200    -0.9240 ns         1 JJ1      -0.557900
      4 C1           3.0290    -0.8790    -0.3830 c3         1 JJ1       0.030700
      5 C2           3.1330    -2.3400    -0.8390 c3         1 JJ1      -0.087400
      6 C3           1.9280    -3.1840    -0.4480 c3         1 JJ1      -0.075400
      7 C4           2.0930    -4.6440    -0.8510 c3         1 JJ1      -0.078400
      8 C5           0.8790    -5.4880    -0.4970 c3         1 JJ1       0.149800
      9 N            1.0740    -6.8760    -0.8910 n8         1 JJ1      -0.886800
     10 C            4.2770    -0.1220    -0.8300 c          1 JJ1       0.654100
     11 N3           5.3210    -0.2140    -0.0020 ns         1 JJ1      -0.567900
     12 C19          6.6260     0.3350    -0.3150 c3         1 JJ1       0.104000
     13 C20          7.5860     0.1140     0.8430 c3         1 JJ1      -0.092400
     14 C21          9.0220     0.5290     0.5300 c6         1 JJ1      -0.056700
     15 C26          9.9540     0.1290     1.6760 c6         1 JJ1      -0.072400
     16 C25         11.4020     0.5220     1.4040 c6         1 JJ1      -0.072900
     17 C24         11.5240     2.0150     1.1180 c6         1 JJ1      -0.075400
     18 C23         10.6060     2.4240    -0.0290 c6         1 JJ1      -0.072900
     19 C22          9.1580     2.0250     0.2430 c6         1 JJ1      -0.072400
     20 O            4.3130     0.4780    -1.8950 o          1 JJ1      -0.612100
     21 C7          -0.2570     0.9130    -0.9920 c3         1 JJ1       0.038700
     22 C8           0.2580     2.3230    -1.2730 c3         1 JJ1       0.119400
     23 O1           0.6030     2.9170    -0.0480 oh         1 JJ1      -0.593800
     24 N2          -1.4880     0.9070    -0.2500 ns         1 JJ1      -0.563900
     25 C9          -2.6950     1.0400    -0.8290 c          1 JJ1       0.669100
     26 O3          -2.8330     1.1710    -2.0370 o          1 JJ1      -0.616100
     27 C10         -3.8620     1.0300     0.1380 c3         1 JJ1      -0.154400
     28 C11         -5.2100     0.8290    -0.5350 c3         1 JJ1      -0.065400
     29 C12         -6.3600     0.8220     0.4650 c3         1 JJ1      -0.076400
     30 C13         -7.7180     0.6460    -0.2030 c3         1 JJ1      -0.074400
     31 C14         -8.8800     0.6340     0.7820 c3         1 JJ1      -0.074400
     32 C15        -10.2340     0.4710     0.1040 c3         1 JJ1      -0.074400
     33 C16        -11.4000     0.4610     1.0850 c3         1 JJ1      -0.074400
     34 C17        -12.7520     0.3030     0.3980 c3         1 JJ1      -0.082400
     35 C18        -13.8970     0.3010     1.3910 c3         1 JJ1       0.140400
     36 O2         -15.1160     0.1440     0.6960 oh         1 JJ1      -0.599800
     37 H1           1.9030     0.0270    -1.9020 hn         1 JJ1       0.333500
     38 H7          -0.4220     0.4260    -1.9570 h1         1 JJ1       0.087700
     39 HA           2.9480    -0.8520     0.7050 h1         1 JJ1       0.090700
     40 H21C         3.2700    -2.3710    -1.9250 hc         1 JJ1       0.050200
     41 H22C         4.0380    -2.7710    -0.4000 hc         1 JJ1       0.050200
     42 H31C         1.7680    -3.1170     0.6330 hc         1 JJ1       0.047200
     43 H32C         1.0280    -2.7790    -0.9190 hc         1 JJ1       0.047200
     44 H41C         2.2730    -4.7040    -1.9300 hc         1 JJ1       0.045200
     45 H42C         2.9780    -5.0680    -0.3660 hc         1 JJ1       0.045200
     46 H51C         0.7290    -5.4580     0.5860 h1         1 JJ1       0.028200
     47 H52C        -0.0150    -5.0270    -0.9420 h1         1 JJ1       0.028200
     48 HN1          0.2750    -7.4250    -0.5980 hn         1 JJ1       0.336800
     49 HN2          1.0860    -6.9360    -1.9020 hn         1 JJ1       0.336800
     50 H3           5.2190    -0.7360     0.8550 hn         1 JJ1       0.317500
     51 H191         7.0220    -0.1390    -1.2190 h1         1 JJ1       0.053700
     52 H192         6.5230     1.3990    -0.5330 h1         1 JJ1       0.053700
     53 H201         7.2310     0.6590     1.7250 hc         1 JJ1       0.043700
     54 H202         7.5800    -0.9490     1.1080 hc         1 JJ1       0.043700
     55 H21          9.3440    -0.0180    -0.3670 hc         1 JJ1       0.048700
     56 H261         9.6140     0.6160     2.5980 hc         1 JJ1       0.039450
     57 H262         9.8810    -0.9490     1.8520 hc         1 JJ1       0.039450
     58 H221         8.5370     2.3140    -0.6100 hc         1 JJ1       0.039450
     59 H222         8.7800     2.5870     1.1050 hc         1 JJ1       0.039450
     60 H251        12.0320     0.2430     2.2530 hc         1 JJ1       0.039450
     61 H252        11.7740    -0.0440     0.5430 hc         1 JJ1       0.039450
     62 H241        11.2510     2.5780     2.0170 hc         1 JJ1       0.039200
     63 H242        12.5600     2.2750     0.8880 hc         1 JJ1       0.039200
     64 H231        10.6710     3.5010    -0.2030 hc         1 JJ1       0.039450
     65 H232        10.9440     1.9400    -0.9510 hc         1 JJ1       0.039450
     66 H81C         1.1140     2.2610    -1.9570 h1         1 JJ1       0.038200
     67 H82C        -0.5260     2.8800    -1.7980 h1         1 JJ1       0.038200
     68 H2          -1.4250     0.7990     0.7510 hn         1 JJ1       0.343500
     69 HB           0.9250     3.8060    -0.2230 ho         1 JJ1       0.408000
     70 H101        -3.6960     0.2580     0.8950 hc         1 JJ1       0.059200
     71 H102        -3.8540     1.9820     0.6810 hc         1 JJ1       0.059200
     72 H111        -5.3760     1.6190    -1.2710 hc         1 JJ1       0.054700
     73 H112        -5.2100    -0.1140    -1.0910 hc         1 JJ1       0.054700
     74 H121        -6.2070     0.0210     1.1960 hc         1 JJ1       0.036200
     75 H122        -6.3530     1.7580     1.0360 hc         1 JJ1       0.036200
     76 H131        -7.8690     1.4520    -0.9300 hc         1 JJ1       0.040200
     77 H132        -7.7210    -0.2860    -0.7790 hc         1 JJ1       0.040200
     78 H141        -8.7360    -0.1780     1.5050 hc         1 JJ1       0.036700
     79 H142        -8.8730     1.5620     1.3640 hc         1 JJ1       0.036700
     80 H151       -10.3760     1.2820    -0.6190 hc         1 JJ1       0.039700
     81 H152       -10.2410    -0.4570    -0.4780 hc         1 JJ1       0.039700
     82 H161       -11.2590    -0.3520     1.8050 hc         1 JJ1       0.036700
     83 H162       -11.3900     1.3880     1.6670 hc         1 JJ1       0.036700
     84 H171       -12.8940     1.1180    -0.3200 hc         1 JJ1       0.052700
     85 H172       -12.7650    -0.6290    -0.1750 hc         1 JJ1       0.052700
     86 H181       -13.7430    -0.5100     2.1160 h1         1 JJ1       0.014700
     87 H182       -13.8800     1.2390     1.9620 h1         1 JJ1       0.014700
     88 HC         -15.8320     0.1700     1.3360 ho         1 JJ1       0.403000
@<TRIPOS>BOND
     1     1     2 2   
     2     2     3 1   
     3     2    21 1   
     4     3     4 1   
     5     3    37 1   
     6     4     5 1   
     7     4    10 1   
     8     4    39 1   
     9     5     6 1   
    10     5    40 1   
    11     5    41 1   
    12     6     7 1   
    13     6    42 1   
    14     6    43 1   
    15     7     8 1   
    16     7    44 1   
    17     7    45 1   
    18     8     9 1   
    19     8    46 1   
    20     8    47 1   
    21     9    48 1   
    22     9    49 1   
    23    10    11 1   
    24    10    20 2   
    25    11    12 1   
    26    11    50 1   
    27    12    13 1   
    28    12    51 1   
    29    12    52 1   
    30    13    14 1   
    31    13    53 1   
    32    13    54 1   
    33    14    15 1   
    34    14    19 1   
    35    14    55 1   
    36    15    16 1   
    37    15    56 1   
    38    15    57 1   
    39    16    17 1   
    40    16    60 1   
    41    16    61 1   
    42    17    18 1   
    43    17    62 1   
    44    17    63 1   
    45    18    19 1   
    46    18    64 1   
    47    18    65 1   
    48    19    58 1   
    49    19    59 1   
    50    21    22 1   
    51    21    24 1   
    52    21    38 1   
    53    22    23 1   
    54    22    66 1   
    55    22    67 1   
    56    23    69 1   
    57    24    25 1   
    58    24    68 1   
    59    25    26 2   
    60    25    27 1   
    61    27    28 1   
    62    27    70 1   
    63    27    71 1   
    64    28    29 1   
    65    28    72 1   
    66    28    73 1   
    67    29    30 1   
    68    29    74 1   
    69    29    75 1   
    70    30    31 1   
    71    30    76 1   
    72    30    77 1   
    73    31    32 1   
    74    31    78 1   
    75    31    79 1   
    76    32    33 1   
    77    32    80 1   
    78    32    81 1   
    79    33    34 1   
    80    33    82 1   
    81    33    83 1   
    82    34    35 1   
    83    34    84 1   
    84    34    85 1   
    85    35    36 1   
    86    35    86 1   
    87    35    87 1   
    88    36    88 1   
@<TRIPOS>SUBSTRUCTURE
     1 JJ1         1 TEMP              0 ****  ****    0 ROOT
