@<TRIPOS>MOLECULE
JJ2
   43    45     1     0     0
SMALL
abcg2


@<TRIPOS>ATOM
      1 O19         -3.7870     2.0490    -1.0260 o          1 JJ2      -0.556000
      2 C15         -2.8680     1.6820    -0.2970 c          1 JJ2       0.597600
      3 N16         -3.0110     0.5820     0.5430 n          1 JJ2      -0.293000
      4 C20         -4.2720    -0.1520     0.5200 c3         1 JJ2       0.088000
      5 C21         -4.2680    -1.2260    -0.5620 c3         1 JJ2       0.143800
      6 N22         -5.5170    -1.9580    -0.6040 n3         1 JJ2      -0.709600
      7 C24         -5.6500    -2.6930    -1.8450 c3         1 JJ2       0.149100
      8 C23         -5.6770    -2.8450     0.5300 c3         1 JJ2       0.149100
      9 C17         -2.0090     0.1080     1.3490 cc         1 JJ2      -0.030400
     10 C18         -0.7850     0.6770     1.4310 cd         1 JJ2      -0.266200
     11 C11         -0.5840     1.8180     0.6200 cd         1 JJ2      -0.044800
     12 C12         -1.5830     2.3100    -0.2140 cc         1 JJ2      -0.242600
     13 C13         -1.0590     3.4510    -0.8820 cc         1 JJ2      -0.102000
     14 C14          0.2190     3.6050    -0.4300 cd         1 JJ2      -0.203000
     15 N10          0.5030     2.6160     0.4830 na         1 JJ2       0.019000
     16 C9           1.7750     2.4130     1.1380 c3         1 JJ2       0.121900
     17 C1           2.5130     1.2120     0.6010 ca         1 JJ2      -0.105300
     18 C6           2.7140     1.0490    -0.7670 ca         1 JJ2      -0.078000
     19 C5           3.4040    -0.0470    -1.2510 ca         1 JJ2      -0.095000
     20 C4           3.9050    -0.9980    -0.3720 ca         1 JJ2       0.124000
     21 CL7          4.7600    -2.3580    -0.9900 cl         1 JJ2      -0.166000
     22 C3           3.7070    -0.8430     0.9930 ca         1 JJ2       0.116000
     23 CL8          4.3090    -2.0110     2.1070 cl         1 JJ2      -0.169000
     24 C2           3.0110     0.2570     1.4740 ca         1 JJ2      -0.088000
     25 H1          -4.4140    -0.5820     1.5110 h1         1 JJ2       0.069200
     26 H2          -5.0890     0.5460     0.3500 h1         1 JJ2       0.069200
     27 H3          -4.1260    -0.7360    -1.5280 h1         1 JJ2       0.042700
     28 H4          -3.4000    -1.8930    -0.4150 h1         1 JJ2       0.042700
     29 H6          -4.8760    -3.4650    -1.9790 h1         1 JJ2       0.031200
     30 H7          -6.6200    -3.1900    -1.8800 h1         1 JJ2       0.031200
     31 H8          -5.5930    -2.0120    -2.6960 h1         1 JJ2       0.031200
     32 H9          -5.6800    -2.2910     1.4690 h1         1 JJ2       0.031200
     33 H10         -6.6350    -3.3610     0.4620 h1         1 JJ2       0.031200
     34 H11         -4.8870    -3.6090     0.5930 h1         1 JJ2       0.031200
     35 H12         -2.2620    -0.7640     1.9340 h4         1 JJ2       0.196000
     36 H13         -0.0350     0.2600     2.0870 ha         1 JJ2       0.199000
     37 H14         -1.5620     4.0790    -1.5990 ha         1 JJ2       0.150000
     38 H15          0.9640     4.3450    -0.6780 h4         1 JJ2       0.146000
     39 H16          2.3700     3.3140     0.9890 h1         1 JJ2       0.069200
     40 H17          1.6210     2.3150     2.2130 h1         1 JJ2       0.069200
     41 H18          2.3320     1.7800    -1.4690 ha         1 JJ2       0.131000
     42 H19          3.5590    -0.1680    -2.3140 ha         1 JJ2       0.136000
     43 H20          2.8570     0.3620     2.5410 ha         1 JJ2       0.130000
@<TRIPOS>BOND
     1     1     2 2   
     2     2     3 1   
     3     2    12 1   
     4     3     4 1   
     5     3     9 1   
     6     4     5 1   
     7     4    25 1   
     8     4    26 1   
     9     5     6 1   
    10     5    27 1   
    11     5    28 1   
    12     6     7 1   
    13     6     8 1   
    14     7    29 1   
    15     7    30 1   
    16     7    31 1   
    17     8    32 1   
    18     8    33 1   
    19     8    34 1   
    20     9    10 2   
    21     9    35 1   
    22    10    11 1   
    23    10    36 1   
    24    11    12 2   
    25    11    15 1   
    26    12    13 1   
    27    13    14 2   
    28    13    37 1   
    29    14    15 1   
    30    14    38 1   
    31    15    16 1   
    32    16    17 1   
    33    16    39 1   
    34    16    40 1   
    35    17    18 ar  
    36    17    24 ar  
    37    18    19 ar  
    38    18    41 1   
    39    19    20 ar  
    40    19    42 1   
    41    20    21 1   
    42    20    22 ar  
    43    22    23 1   
    44    22    24 ar  
    45    24    43 1   
@<TRIPOS>SUBSTRUCTURE
     1 JJ2         1 TEMP              0 ****  ****    0 ROOT
