@<TRIPOS>MOLECULE
JJ2
   43    45     1     0     0
SMALL
No Charge or Current Charge


@<TRIPOS>ATOM
      1 O19         -3.8050     2.2540    -0.8600 o          1 JJ2      -0.556000
      2 C15         -2.8880     1.7660    -0.2090 c          1 JJ2       0.597600
      3 N16         -2.9960     0.5380     0.5020 n          1 JJ2      -0.293000
      4 C20         -4.2910    -0.1860     0.4630 c3         1 JJ2       0.088000
      5 C21         -4.3230    -1.3050    -0.6060 c3         1 JJ2       0.143800
      6 N22         -5.6210    -2.0210    -0.7380 n3         1 JJ2      -0.709600
      7 C24         -5.6520    -2.9030    -1.9270 c3         1 JJ2       0.149100
      8 C23         -6.0370    -2.7390     0.4910 c3         1 JJ2       0.149100
      9 C17         -1.9210    -0.0030     1.2350 cc         1 JJ2      -0.030400
     10 C18         -0.6880     0.6200     1.3180 cd         1 JJ2      -0.266200
     11 C11         -0.5450     1.8570     0.6190 cd         1 JJ2      -0.044800
     12 C12         -1.5600     2.3960    -0.0930 cc         1 JJ2      -0.242600
     13 C13         -1.0980     3.6020    -0.6600 cc         1 JJ2      -0.102000
     14 C14          0.2120     3.7940    -0.2880 cd         1 JJ2      -0.203000
     15 N10          0.5660     2.6970     0.5190 na         1 JJ2       0.019000
     16 C9           1.8830     2.4700     1.1360 c3         1 JJ2       0.121900
     17 C1           2.6200     1.2400     0.6070 ca         1 JJ2      -0.105300
     18 C6           2.5910     0.9110    -0.7650 ca         1 JJ2      -0.078000
     19 C5           3.2700    -0.2260    -1.2370 ca         1 JJ2      -0.095000
     20 C4           3.9850    -1.0430    -0.3460 ca         1 JJ2       0.124000
     21 Cl7          4.8250    -2.4630    -0.9710 cl         1 JJ2      -0.166000
     22 C3           4.0240    -0.7170     1.0250 ca         1 JJ2       0.116000
     23 Cl8          4.9150    -1.7180     2.1730 cl         1 JJ2      -0.169000
     24 C2           3.3450     0.4200     1.4950 ca         1 JJ2      -0.088000
     25 H1          -4.4690    -0.6240     1.4530 h1         1 JJ2       0.069200
     26 H2          -5.1130     0.5150     0.2740 h1         1 JJ2       0.069200
     27 H3          -4.0690    -0.8390    -1.5680 h1         1 JJ2       0.042700
     28 H4          -3.5220    -2.0230    -0.3820 h1         1 JJ2       0.042700
     29 H6          -4.9140    -3.7120    -1.8340 h1         1 JJ2       0.031200
     30 H7          -6.6450    -3.3550    -2.0510 h1         1 JJ2       0.031200
     31 H8          -5.4260    -2.3340    -2.8390 h1         1 JJ2       0.031200
     32 H9          -6.1600    -2.0470     1.3340 h1         1 JJ2       0.031200
     33 H10         -7.0000    -3.2440     0.3370 h1         1 JJ2       0.031200
     34 H11         -5.2940    -3.4980     0.7710 h1         1 JJ2       0.031200
     35 H12         -2.1690    -0.9460     1.7140 h4         1 JJ2       0.196000
     36 H13          0.1280     0.1830     1.8880 ha         1 JJ2       0.199000
     37 H14         -1.6930     4.2600    -1.2900 ha         1 JJ2       0.150000
     38 H15          0.9010     4.5960    -0.5260 h4         1 JJ2       0.146000
     39 H16          2.5050     3.3580     0.9660 h1         1 JJ2       0.069200
     40 H17          1.7350     2.3750     2.2190 h1         1 JJ2       0.069200
     41 H18          2.0430     1.5340    -1.4690 ha         1 JJ2       0.131000
     42 H19          3.2410    -0.4750    -2.2950 ha         1 JJ2       0.136000
     43 H20          3.3830     0.6610     2.5550 ha         1 JJ2       0.130000
@<TRIPOS>BOND
     1     1     2 2   
     2     2     3 1   
     3     2    12 1   
     4     3     4 1   
     5     3     9 1   
     6     4     5 1   
     7     4    25 1   
     8     4    26 1   
     9     5     6 1   
    10     5    27 1   
    11     5    28 1   
    12     6     7 1   
    13     6     8 1   
    14     7    29 1   
    15     7    30 1   
    16     7    31 1   
    17     8    32 1   
    18     8    33 1   
    19     8    34 1   
    20     9    10 2   
    21     9    35 1   
    22    10    11 1   
    23    10    36 1   
    24    11    12 2   
    25    11    15 1   
    26    12    13 1   
    27    13    14 2   
    28    13    37 1   
    29    14    15 1   
    30    14    38 1   
    31    15    16 1   
    32    16    17 1   
    33    16    39 1   
    34    16    40 1   
    35    17    18 ar  
    36    17    24 ar  
    37    18    19 ar  
    38    18    41 1   
    39    19    20 ar  
    40    19    42 1   
    41    20    21 1   
    42    20    22 ar  
    43    22    23 1   
    44    22    24 ar  
    45    24    43 1   
@<TRIPOS>SUBSTRUCTURE
     1 JJ2         1 TEMP              0 ****  ****    0 ROOT
