@<TRIPOS>MOLECULE
JJ3
   46    49     1     0     0
SMALL
No Charge or Current Charge


@<TRIPOS>ATOM
      1 C1          -4.1110     0.6860     0.7120 ca         1 JJ3       0.105100
      2 C2          -3.7520    -0.6660     0.6380 ca         1 JJ3      -0.150000
      3 C3          -2.3960    -1.0350     0.5340 ca         1 JJ3      -0.070300
      4 C4          -1.4000    -0.0310     0.5020 ca         1 JJ3       0.103100
      5 O5          -0.0780    -0.4160     0.4290 os         1 JJ3      -0.352100
      6 C6           0.9400     0.5180     0.8210 c6         1 JJ3       0.238600
      7 C8           0.6940     1.8880     0.1570 c5         1 JJ3      -0.095700
      8 C10          0.7690     1.9380    -1.3950 c5         1 JJ3      -0.070400
      9 C11          0.2520     3.3740    -1.6320 c5         1 JJ3      -0.077400
     10 C12         -1.0630     3.3540    -0.8100 c5         1 JJ3      -0.069400
     11 C13         -0.7210     2.4830     0.4560 c5         1 JJ3      -0.012400
     12 C15         -1.7580     1.3440     0.5380 ca         1 JJ3      -0.106300
     13 C16         -3.1230     1.6800     0.6650 ca         1 JJ3      -0.114000
     14 C17          2.3260    -0.0600     0.4960 ca         1 JJ3      -0.122300
     15 C18          3.4080     0.2010     1.3600 ca         1 JJ3      -0.053500
     16 C19          4.6840    -0.3140     1.0730 ca         1 JJ3      -0.178500
     17 C20          4.8880    -1.0900    -0.0760 ca         1 JJ3       0.143100
     18 O21          6.1290    -1.5840    -0.3450 oh         1 JJ3      -0.533100
     19 C22          3.8170    -1.3550    -0.9440 ca         1 JJ3      -0.178500
     20 C23          2.5390    -0.8410    -0.6600 ca         1 JJ3      -0.053500
     21 C24         -2.0330    -2.5170     0.4730 c3         1 JJ3       0.210900
     22 O25         -2.2810    -3.0010    -0.8600 os         1 JJ3      -0.460000
     23 C26         -1.9700    -4.3900    -1.0540 c3         1 JJ3       0.148900
     24 O27         -5.4230     1.0450     0.8230 oh         1 JJ3      -0.539100
     25 H2          -4.5170    -1.4380     0.6650 ha         1 JJ3       0.133000
     26 H16         -3.4220     2.7240     0.7170 ha         1 JJ3       0.127000
     27 H27         -5.9720     0.2310     0.8360 ho         1 JJ3       0.464000
     28 H241        -0.9830    -2.6700     0.7530 h1         1 JJ3       0.038700
     29 H242        -2.6480    -3.0650     1.2000 h1         1 JJ3       0.038700
     30 H6           0.8640     0.6460     1.9110 h1         1 JJ3       0.050700
     31 H8           1.4650     2.5430     0.5820 hc         1 JJ3       0.062700
     32 H101         1.7890     1.7980    -1.7710 hc         1 JJ3       0.051200
     33 H102         0.1300     1.1850    -1.8720 hc         1 JJ3       0.051200
     34 H13         -0.7100     3.0820     1.3750 hc         1 JJ3       0.061700
     35 H111         0.9550     4.1290    -1.2580 hc         1 JJ3       0.042200
     36 H112         0.0770     3.5870    -2.6930 hc         1 JJ3       0.042200
     37 H121        -1.3880     4.3650    -0.5380 hc         1 JJ3       0.046200
     38 H122        -1.8700     2.9170    -1.4100 hc         1 JJ3       0.046200
     39 H18          3.2610     0.8050     2.2540 ha         1 JJ3       0.119000
     40 H23          1.7170    -1.0490    -1.3410 ha         1 JJ3       0.119000
     41 H19          5.5150    -0.1090     1.7440 ha         1 JJ3       0.121500
     42 H21          6.0850    -2.0970    -1.1790 ho         1 JJ3       0.465000
     43 H22          3.9660    -1.9540    -1.8390 ha         1 JJ3       0.121500
     44 H261        -2.1840    -4.6880    -2.0890 h1         1 JJ3       0.028700
     45 H262        -0.9070    -4.5830    -0.8560 h1         1 JJ3       0.028700
     46 H263        -2.5690    -5.0220    -0.3860 h1         1 JJ3       0.028700
@<TRIPOS>BOND
     1     1     2 ar  
     2     1    13 ar  
     3     1    24 1   
     4     2     3 ar  
     5     2    25 1   
     6     3     4 ar  
     7     3    21 1   
     8     4     5 1   
     9     4    12 ar  
    10     5     6 1   
    11     6     7 1   
    12     6    14 1   
    13     6    30 1   
    14     7     8 1   
    15     7    11 1   
    16     7    31 1   
    17     8     9 1   
    18     8    32 1   
    19     8    33 1   
    20     9    10 1   
    21     9    35 1   
    22     9    36 1   
    23    10    11 1   
    24    10    37 1   
    25    10    38 1   
    26    11    12 1   
    27    11    34 1   
    28    12    13 ar  
    29    13    26 1   
    30    14    15 ar  
    31    14    20 ar  
    32    15    16 ar  
    33    15    39 1   
    34    16    17 ar  
    35    16    41 1   
    36    17    18 1   
    37    17    19 ar  
    38    18    42 1   
    39    19    20 ar  
    40    19    43 1   
    41    20    40 1   
    42    21    22 1   
    43    21    28 1   
    44    21    29 1   
    45    22    23 1   
    46    23    44 1   
    47    23    45 1   
    48    23    46 1   
    49    24    27 1   
@<TRIPOS>SUBSTRUCTURE
     1 JJ3         1 TEMP              0 ****  ****    0 ROOT
