@<TRIPOS>MOLECULE
JJ3
   46    49     1     0     0
SMALL
abcg2


@<TRIPOS>ATOM
      1 C1          -4.0290     0.6210     0.2600 ca         1 JJ3       0.105100
      2 C2          -3.6310    -0.7040     0.0970 ca         1 JJ3      -0.150000
      3 C3          -2.2850    -1.0360     0.1200 ca         1 JJ3      -0.070300
      4 C4          -1.3350    -0.0260     0.2990 ca         1 JJ3       0.103100
      5 O5          -0.0390    -0.4350     0.3150 os         1 JJ3      -0.352100
      6 C6           0.9250     0.4660     0.8330 c6         1 JJ3       0.238600
      7 C8           0.7140     1.8650     0.2740 c5         1 JJ3      -0.095700
      8 C10          0.8090     1.9960    -1.2460 c5         1 JJ3      -0.070400
      9 C11          0.0730     3.3040    -1.5630 c5         1 JJ3      -0.077400
     10 C12         -0.8490     3.5860    -0.3550 c5         1 JJ3      -0.069400
     11 C13         -0.6830     2.3950     0.6070 c5         1 JJ3      -0.012400
     12 C15         -1.7160     1.3070     0.4290 ca         1 JJ3      -0.106300
     13 C16         -3.0750     1.6110     0.4220 ca         1 JJ3      -0.114000
     14 C17          2.2910    -0.0830     0.5250 ca         1 JJ3      -0.122300
     15 C18          3.3510     0.2070     1.3790 ca         1 JJ3      -0.053500
     16 C19          4.6400    -0.2210     1.1060 ca         1 JJ3      -0.178500
     17 C20          4.8920    -0.9670    -0.0430 ca         1 JJ3       0.143100
     18 O21          6.1600    -1.3680    -0.2720 oh         1 JJ3      -0.533100
     19 C22          3.8400    -1.2720    -0.9010 ca         1 JJ3      -0.178500
     20 C23          2.5560    -0.8310    -0.6170 ca         1 JJ3      -0.053500
     21 C24         -1.8100    -2.4540    -0.0360 c3         1 JJ3       0.210900
     22 O25         -2.8950    -3.3050    -0.2790 os         1 JJ3      -0.460000
     23 C26         -2.5040    -4.6470    -0.4100 c3         1 JJ3       0.148900
     24 O27         -5.3330     0.9880     0.2640 oh         1 JJ3      -0.539100
     25 H2          -4.3760    -1.4780    -0.0360 ha         1 JJ3       0.133000
     26 H16         -3.3960     2.6400     0.5440 ha         1 JJ3       0.127000
     27 H27         -5.8970     0.2150     0.1520 ho         1 JJ3       0.464000
     28 H241        -1.0800    -2.5160    -0.8560 h1         1 JJ3       0.038700
     29 H242        -1.2720    -2.7620     0.8740 h1         1 JJ3       0.038700
     30 H6           0.8080     0.5190     1.9250 h1         1 JJ3       0.050700
     31 H8           1.4580     2.5210     0.7380 hc         1 JJ3       0.062700
     32 H101         1.8420     2.0010    -1.5950 hc         1 JJ3       0.051200
     33 H102         0.3150     1.1530    -1.7360 hc         1 JJ3       0.051200
     34 H13         -0.7280     2.7400     1.6450 hc         1 JJ3       0.061700
     35 H111         0.7840     4.1220    -1.6890 hc         1 JJ3       0.042200
     36 H112        -0.4860     3.2320    -2.4960 hc         1 JJ3       0.042200
     37 H121        -0.5370     4.5000     0.1530 hc         1 JJ3       0.046200
     38 H122        -1.8860     3.7390    -0.6530 hc         1 JJ3       0.046200
     39 H18          3.1700     0.7830     2.2800 ha         1 JJ3       0.119000
     40 H23          1.7580    -1.0820    -1.3040 ha         1 JJ3       0.119000
     41 H19          5.4500     0.0150     1.7850 ha         1 JJ3       0.121500
     42 H21          6.2070    -1.8760    -1.0890 ho         1 JJ3       0.465000
     43 H22          4.0210    -1.8570    -1.7960 ha         1 JJ3       0.121500
     44 H261        -3.3950    -5.2370    -0.6220 h1         1 JJ3       0.028700
     45 H262        -1.7910    -4.7890    -1.2320 h1         1 JJ3       0.028700
     46 H263        -2.0420    -5.0320     0.5060 h1         1 JJ3       0.028700
@<TRIPOS>BOND
     1     1     2 ar  
     2     1    13 ar  
     3     1    24 1   
     4     2     3 ar  
     5     2    25 1   
     6     3     4 ar  
     7     3    21 1   
     8     4     5 1   
     9     4    12 ar  
    10     5     6 1   
    11     6     7 1   
    12     6    14 1   
    13     6    30 1   
    14     7     8 1   
    15     7    11 1   
    16     7    31 1   
    17     8     9 1   
    18     8    32 1   
    19     8    33 1   
    20     9    10 1   
    21     9    35 1   
    22     9    36 1   
    23    10    11 1   
    24    10    37 1   
    25    10    38 1   
    26    11    12 1   
    27    11    34 1   
    28    12    13 ar  
    29    13    26 1   
    30    14    15 ar  
    31    14    20 ar  
    32    15    16 ar  
    33    15    39 1   
    34    16    17 ar  
    35    16    41 1   
    36    17    18 1   
    37    17    19 ar  
    38    18    42 1   
    39    19    20 ar  
    40    19    43 1   
    41    20    40 1   
    42    21    22 1   
    43    21    28 1   
    44    21    29 1   
    45    22    23 1   
    46    23    44 1   
    47    23    45 1   
    48    23    46 1   
    49    24    27 1   
@<TRIPOS>SUBSTRUCTURE
     1 JJ3         1 TEMP              0 ****  ****    0 ROOT
