@<TRIPOS>MOLECULE
JJ4
   34    35     1     0     0
SMALL
abcg2


@<TRIPOS>ATOM
      1 C10          1.3650    -0.0800    -0.2980 c3         1 JJ4      -0.159400
      2 C13          5.1290     0.9600    -0.3840 c5         1 JJ4      -0.076900
      3 C15          5.7140    -1.0490     0.8090 c5         1 JJ4      -0.078900
      4 C02         -4.7890     0.1200     0.2020 cc         1 JJ4      -0.219300
      5 C03         -4.1950     1.3370     0.2150 cd         1 JJ4       0.300900
      6 N04         -2.8300     1.3690     0.1000 nd         1 JJ4      -0.653000
      7 C05         -2.3570     0.1760    -0.0010 cc         1 JJ4       0.589300
      8 S06         -3.5550    -1.0880     0.0370 ss         1 JJ4      -0.131400
      9 N07         -1.0340    -0.1810    -0.1290 ns         1 JJ4      -0.491400
     10 C08          0.0550     0.6600    -0.1460 c          1 JJ4       0.603100
     11 O09         -0.0370     1.8620    -0.0510 o          1 JJ4      -0.517100
     12 C11          2.5830     0.8280    -0.2330 c3         1 JJ4      -0.057400
     13 C12          3.8880     0.0680    -0.4200 c5         1 JJ4      -0.071700
     14 C14          6.2680    -0.0380    -0.2070 c5         1 JJ4      -0.078900
     15 C16          4.1760    -0.9900     0.6620 c5         1 JJ4      -0.076900
     16 H102         1.4160    -0.8510     0.4770 hc         1 JJ4       0.058700
     17 H101         1.3450    -0.6210    -1.2500 hc         1 JJ4       0.058700
     18 H131         5.2280     1.5850    -1.2740 hc         1 JJ4       0.042200
     19 H132         5.0750     1.6280     0.4830 hc         1 JJ4       0.042200
     20 H152         6.1090    -2.0520     0.6440 hc         1 JJ4       0.041700
     21 H151         6.0060    -0.7600     1.8200 hc         1 JJ4       0.041700
     22 H011        -6.5890    -0.7410    -0.5910 hc         1 JJ4       0.048367
     23 H012        -6.4330    -0.8780     1.1570 hc         1 JJ4       0.048367
     24 H013        -6.8180     0.6790     0.4280 hc         1 JJ4       0.048367
     25 H071        -0.8400    -1.1680    -0.2120 hn         1 JJ4       0.326500
     26 H111         2.5040     1.6030    -1.0000 hc         1 JJ4       0.058700
     27 H112         2.6060     1.3470     0.7310 hc         1 JJ4       0.058700
     28 H121         3.8640    -0.4300    -1.3980 hc         1 JJ4       0.044700
     29 H142         6.4720    -0.5300    -1.1620 hc         1 JJ4       0.041700
     30 H141         7.2010     0.4210     0.1220 hc         1 JJ4       0.041700
     31 H162         3.7480    -1.9600     0.4040 hc         1 JJ4       0.042200
     32 H161         3.7150    -0.6860     1.6060 hc         1 JJ4       0.042200
     33 H031        -4.7380     2.2680     0.3100 h4         1 JJ4       0.043100
     34 C01         -6.2310    -0.2300     0.3040 c3         1 JJ4      -0.012800
@<TRIPOS>BOND
     1     1    10 1   
     2     1    12 1   
     3     1    16 1   
     4     1    17 1   
     5     2    13 1   
     6     2    14 1   
     7     2    18 1   
     8     2    19 1   
     9     3    14 1   
    10     3    15 1   
    11     3    20 1   
    12     3    21 1   
    13     4     5 2   
    14     4     8 1   
    15     4    34 1   
    16     5     6 1   
    17     5    33 1   
    18     6     7 2   
    19     7     8 1   
    20     7     9 1   
    21     9    10 1   
    22     9    25 1   
    23    10    11 2   
    24    12    13 1   
    25    12    26 1   
    26    12    27 1   
    27    13    15 1   
    28    13    28 1   
    29    14    29 1   
    30    14    30 1   
    31    15    31 1   
    32    15    32 1   
    33    22    34 1   
    34    23    34 1   
    35    24    34 1   
@<TRIPOS>SUBSTRUCTURE
     1 JJ4         1 TEMP              0 ****  ****    0 ROOT
