@<TRIPOS>MOLECULE
JJ4
   34    35     1     0     0
SMALL
No Charge or Current Charge


@<TRIPOS>ATOM
      1 C10          1.4100    -0.0440    -1.1530 c3         1 JJ4      -0.159400
      2 C13          4.8600     0.9930     0.5640 c5         1 JJ4      -0.076900
      3 C15          5.5900    -1.3550     0.3730 c5         1 JJ4      -0.078900
      4 C02         -4.5510     0.2080     0.5480 cc         1 JJ4      -0.219300
      5 C03         -4.1820     1.2540    -0.2680 cd         1 JJ4       0.300900
      6 N04         -2.8550     1.2400    -0.6710 nd         1 JJ4      -0.653000
      7 C05         -2.2350     0.1900    -0.1600 cc         1 JJ4       0.589300
      8 S06         -3.2080    -0.8540     0.8440 ss         1 JJ4      -0.131400
      9 N07         -0.9080    -0.0900    -0.3830 ns         1 JJ4      -0.491400
     10 C08          0.0170     0.5990    -1.1320 c          1 JJ4       0.603100
     11 O09         -0.2230     1.6190    -1.7590 o          1 JJ4      -0.517100
     12 C11          2.4170     0.7550    -0.2890 c3         1 JJ4      -0.057400
     13 C12          3.8620     0.1990    -0.3140 c5         1 JJ4      -0.071700
     14 C14          6.1340     0.1080     0.4690 c5         1 JJ4      -0.078900
     15 C16          4.0410    -1.2060     0.3180 c5         1 JJ4      -0.076900
     16 H102         1.3570    -1.0700    -0.7700 hc         1 JJ4       0.058700
     17 H101         1.7730    -0.0540    -2.1870 hc         1 JJ4       0.058700
     18 H131         5.0340     2.0080     0.1910 hc         1 JJ4       0.042200
     19 H132         4.5100     1.0830     1.6000 hc         1 JJ4       0.042200
     20 H152         5.9720    -1.8490    -0.5280 hc         1 JJ4       0.041700
     21 H151         5.9030    -1.9670     1.2270 hc         1 JJ4       0.041700
     22 H011        -6.2940    -1.0300     0.8150 hc         1 JJ4       0.048367
     23 H012        -5.8480    -0.0790     2.2450 hc         1 JJ4       0.048367
     24 H013        -6.6270     0.7110     0.8620 hc         1 JJ4       0.048367
     25 H071        -0.5500    -0.9190     0.0670 hn         1 JJ4       0.326500
     26 H111         2.4310     1.7960    -0.6400 hc         1 JJ4       0.058700
     27 H112         2.0510     0.7870     0.7450 hc         1 JJ4       0.058700
     28 H121         4.1870     0.1990    -1.3630 hc         1 JJ4       0.044700
     29 H142         6.7200     0.3610    -0.4220 hc         1 JJ4       0.041700
     30 H141         6.7930     0.2500     1.3330 hc         1 JJ4       0.041700
     31 H162         3.5770    -2.0000    -0.2770 hc         1 JJ4       0.042200
     32 H161         3.6010    -1.2550     1.3220 hc         1 JJ4       0.042200
     33 H031        -4.8330     2.0530    -0.6020 h4         1 JJ4       0.043100
     34 C01         -5.9040    -0.0620     1.1500 c3         1 JJ4      -0.012800
@<TRIPOS>BOND
     1     1    10 1   
     2     1    12 1   
     3     1    16 1   
     4     1    17 1   
     5     2    13 1   
     6     2    14 1   
     7     2    18 1   
     8     2    19 1   
     9     3    14 1   
    10     3    15 1   
    11     3    20 1   
    12     3    21 1   
    13     4     5 2   
    14     4     8 1   
    15     4    34 1   
    16     5     6 1   
    17     5    33 1   
    18     6     7 2   
    19     7     8 1   
    20     7     9 1   
    21     9    10 1   
    22     9    25 1   
    23    10    11 2   
    24    12    13 1   
    25    12    26 1   
    26    12    27 1   
    27    13    15 1   
    28    13    28 1   
    29    14    29 1   
    30    14    30 1   
    31    15    31 1   
    32    15    32 1   
    33    22    34 1   
    34    23    34 1   
    35    24    34 1   
@<TRIPOS>SUBSTRUCTURE
     1 JJ4         1 TEMP              0 ****  ****    0 ROOT
