@<TRIPOS>MOLECULE
JJ5
   29    31     1     0     0
SMALL
abcg2


@<TRIPOS>ATOM
      1 O            5.0030     0.7920     1.8550 o          1 JJ5      -0.497100
      2 C13          4.1830     0.2290     1.1580 c          1 JJ5       0.729100
      3 C            3.2310     0.9130     0.3160 cc         1 JJ5      -0.257600
      4 C3           2.9970     2.2970     0.0790 cc         1 JJ5      -0.096000
      5 C2           1.9740     2.3610    -0.8210 cd         1 JJ5      -0.208000
      6 N1           4.1520    -1.1890     1.1670 ne         1 JJ5      -0.634100
      7 C12          3.3170    -1.8250     0.4490 c2         1 JJ5       0.488200
      8 C11          2.2800    -1.2670    -0.4700 c6         1 JJ5      -0.128400
      9 C1           2.3370     0.2040    -0.4530 cd         1 JJ5      -0.121300
     10 N            1.5800     1.0810    -1.1420 na         1 JJ5       0.036000
     11 C4           0.5080     0.7350    -2.0490 c3         1 JJ5       0.115900
     12 C5          -0.6620     0.0890    -1.3510 ca         1 JJ5      -0.111300
     13 C10         -1.3460    -0.9560    -1.9590 ca         1 JJ5      -0.096000
     14 C9          -2.4420    -1.5370    -1.3430 ca         1 JJ5      -0.096000
     15 C8          -2.8600    -1.0820    -0.1020 ca         1 JJ5       0.124000
     16 CL          -4.2170    -1.8170     0.6610 cl         1 JJ5      -0.161000
     17 C7          -2.1760    -0.0410     0.5150 ca         1 JJ5       0.118000
     18 CL1         -2.6710     0.5390     2.0590 cl         1 JJ5      -0.159000
     19 C6          -1.0840     0.5420    -0.1080 ca         1 JJ5      -0.079000
     20 H1           3.5180     3.1350     0.5140 ha         1 JJ5       0.153000
     21 H2           1.4850     3.2100    -1.2720 h4         1 JJ5       0.151000
     22 H3           3.3480    -2.9110     0.5020 h4         1 JJ5       0.021800
     23 H4           2.4520    -1.6900    -1.4680 hc         1 JJ5       0.080200
     24 H5           1.3060    -1.6630    -0.1560 hc         1 JJ5       0.080200
     25 H6           0.1890     1.6530    -2.5430 h1         1 JJ5       0.071200
     26 H7           0.8890     0.0760    -2.8310 h1         1 JJ5       0.071200
     27 H8          -1.0260    -1.3270    -2.9250 ha         1 JJ5       0.122000
     28 H9          -2.9700    -2.3500    -1.8220 ha         1 JJ5       0.137000
     29 H10         -0.5640     1.3500     0.3910 ha         1 JJ5       0.145000
@<TRIPOS>BOND
     1     1     2 2   
     2     2     3 1   
     3     2     6 1   
     4     3     4 1   
     5     3     9 2   
     6     4     5 2   
     7     4    20 1   
     8     5    10 1   
     9     5    21 1   
    10     6     7 2   
    11     7     8 1   
    12     7    22 1   
    13     8     9 1   
    14     8    23 1   
    15     8    24 1   
    16     9    10 1   
    17    10    11 1   
    18    11    12 1   
    19    11    25 1   
    20    11    26 1   
    21    12    13 ar  
    22    12    19 ar  
    23    13    14 ar  
    24    13    27 1   
    25    14    15 ar  
    26    14    28 1   
    27    15    16 1   
    28    15    17 ar  
    29    17    18 1   
    30    17    19 ar  
    31    19    29 1   
@<TRIPOS>SUBSTRUCTURE
     1 JJ5         1 TEMP              0 ****  ****    0 ROOT
