@<TRIPOS>MOLECULE
JJ5
   29    31     1     0     0
SMALL
No Charge or Current Charge


@<TRIPOS>ATOM
      1 O            5.0760     0.8960     1.8040 o          1 JJ5      -0.497100
      2 C13          4.2640     0.2460     1.1640 c          1 JJ5       0.729100
      3 C            3.2640     0.8800     0.2690 cc         1 JJ5      -0.257600
      4 C3           3.0890     2.2560     0.0170 cc         1 JJ5      -0.096000
      5 C2           2.0540     2.4130    -0.8680 cd         1 JJ5      -0.208000
      6 N1           4.2040    -1.1560     1.2190 ne         1 JJ5      -0.634100
      7 C12          3.3320    -1.8540     0.5380 c2         1 JJ5       0.488200
      8 C11          2.2630    -1.3060    -0.3980 c6         1 JJ5      -0.128400
      9 C1           2.3480     0.1880    -0.4530 cd         1 JJ5      -0.121300
     10 N            1.5870     1.1230    -1.1650 na         1 JJ5       0.036000
     11 C4           0.4670     0.8060    -2.0670 c3         1 JJ5       0.115900
     12 C5          -0.7160     0.1260    -1.3770 ca         1 JJ5      -0.111300
     13 C10         -1.3930    -0.9270    -2.0220 ca         1 JJ5      -0.096000
     14 C9          -2.4770    -1.5650    -1.3930 ca         1 JJ5      -0.096000
     15 C8          -2.8950    -1.1550    -0.1160 ca         1 JJ5       0.124000
     16 Cl          -4.2570    -1.9770     0.6460 cl         1 JJ5      -0.161000
     17 C7          -2.2250    -0.0980     0.5340 ca         1 JJ5       0.118000
     18 Cl1         -2.7210     0.4460     2.1370 cl         1 JJ5      -0.159000
     19 C6          -1.1420     0.5390    -0.0970 ca         1 JJ5      -0.079000
     20 H1           3.6840     3.0510     0.4600 ha         1 JJ5       0.153000
     21 H2           1.6230     3.3110    -1.2970 h4         1 JJ5       0.151000
     22 H3           3.3610    -2.9360     0.6440 h4         1 JJ5       0.021800
     23 H4           2.4000    -1.7410    -1.3960 hc         1 JJ5       0.080200
     24 H5           1.2760    -1.6280    -0.0420 hc         1 JJ5       0.080200
     25 H6           0.1210     1.7360    -2.5350 h1         1 JJ5       0.071200
     26 H7           0.8520     0.1590    -2.8650 h1         1 JJ5       0.071200
     27 H8          -1.0800    -1.2560    -3.0110 ha         1 JJ5       0.122000
     28 H9          -2.9940    -2.3790    -1.8950 ha         1 JJ5       0.137000
     29 H10         -0.6360     1.3540     0.4160 ha         1 JJ5       0.145000
@<TRIPOS>BOND
     1     1     2 2   
     2     2     3 1   
     3     2     6 1   
     4     3     4 1   
     5     3     9 2   
     6     4     5 2   
     7     4    20 1   
     8     5    10 1   
     9     5    21 1   
    10     6     7 2   
    11     7     8 1   
    12     7    22 1   
    13     8     9 1   
    14     8    23 1   
    15     8    24 1   
    16     9    10 1   
    17    10    11 1   
    18    11    12 1   
    19    11    25 1   
    20    11    26 1   
    21    12    13 ar  
    22    12    19 ar  
    23    13    14 ar  
    24    13    27 1   
    25    14    15 ar  
    26    14    28 1   
    27    15    16 1   
    28    15    17 ar  
    29    17    18 1   
    30    17    19 ar  
    31    19    29 1   
@<TRIPOS>SUBSTRUCTURE
     1 JJ5         1 TEMP              0 ****  ****    0 ROOT
