@<TRIPOS>MOLECULE
JJ6
   28    30     1     0     0
SMALL
abcg2


@<TRIPOS>ATOM
      1 C1          31.3050   -41.8020   -17.6940 cc         1 JJ6      -0.064300
      2 C2          29.9930   -41.5470   -18.1780 cc         1 JJ6      -0.162000
      3 C3          28.9280   -42.2470   -17.7130 cd         1 JJ6      -0.071000
      4 C4          31.5020   -42.7680   -16.7450 cd         1 JJ6      -0.063000
      5 C5          30.3880   -43.4860   -16.2720 cd         1 JJ6      -0.060000
      6 N6          29.1480   -43.1980   -16.7730 na         1 JJ6       0.294400
      7 N7          28.2280   -43.9810   -16.2040 nd         1 JJ6      -0.599100
      8 C8          28.9490   -44.7190   -15.3760 cc         1 JJ6       0.587900
      9 N9          30.2680   -44.4570   -15.3780 nc         1 JJ6      -0.397300
     10 C10         32.4270   -40.9810   -18.2560 c3         1 JJ6       0.210900
     11 C11         28.3390   -45.7450   -14.5280 ca         1 JJ6      -0.107900
     12 C12         26.9650   -45.9840   -14.5780 ca         1 JJ6      -0.073000
     13 C13         26.3950   -46.9580   -13.7730 ca         1 JJ6      -0.123500
     14 C14         27.1880   -47.7050   -12.9090 ca         1 JJ6      -0.096000
     15 C15         28.5550   -47.4710   -12.8560 ca         1 JJ6      -0.123500
     16 C16         29.1290   -46.4970   -13.6600 ca         1 JJ6      -0.073000
     17 O17         33.6510   -41.4060   -17.7280 oh         1 JJ6      -0.654000
     18 H18         29.8270   -40.7880   -18.9300 ha         1 JJ6       0.132000
     19 H19         27.9080   -42.1050   -18.0380 h4         1 JJ6       0.162000
     20 H20         32.4770   -43.0000   -16.3450 ha         1 JJ6       0.165000
     21 H21         32.3980   -41.0670   -19.3510 h1         1 JJ6       0.031200
     22 H22         32.2220   -39.9260   -18.0280 h1         1 JJ6       0.031200
     23 H23         26.3400   -45.4090   -15.2480 ha         1 JJ6       0.130500
     24 H24         25.3290   -47.1350   -13.8210 ha         1 JJ6       0.113500
     25 H25         26.7410   -48.4640   -12.2820 ha         1 JJ6       0.111000
     26 H26         29.1790   -48.0480   -12.1860 ha         1 JJ6       0.113500
     27 H27         30.1950   -46.3190   -13.6140 ha         1 JJ6       0.130500
     28 H28         34.3430   -40.8300   -18.0640 ho         1 JJ6       0.453000
@<TRIPOS>BOND
     1     1     2 1   
     2     1     4 2   
     3     1    10 1   
     4     2     3 2   
     5     2    18 1   
     6     3     6 1   
     7     3    19 1   
     8     4     5 1   
     9     4    20 1   
    10     5     6 1   
    11     5     9 2   
    12     6     7 1   
    13     7     8 2   
    14     8     9 1   
    15     8    11 1   
    16    10    17 1   
    17    10    21 1   
    18    10    22 1   
    19    11    12 ar  
    20    11    16 ar  
    21    12    13 ar  
    22    12    23 1   
    23    13    14 ar  
    24    13    24 1   
    25    14    15 ar  
    26    14    25 1   
    27    15    16 ar  
    28    15    26 1   
    29    16    27 1   
    30    17    28 1   
@<TRIPOS>SUBSTRUCTURE
     1 JJ6         1 TEMP              0 ****  ****    0 ROOT
