@<TRIPOS>MOLECULE
JJ6
   28    30     1     0     0
SMALL
No Charge or Current Charge


@<TRIPOS>ATOM
      1 C1          31.3910   -41.7570   -17.5490 cc         1 JJ6      -0.064300
      2 C2          30.1280   -41.6850   -18.2610 cc         1 JJ6      -0.162000
      3 C3          29.0040   -42.4470   -17.9450 cd         1 JJ6      -0.071000
      4 C4          31.5060   -42.6340   -16.4860 cd         1 JJ6      -0.063000
      5 C5          30.3500   -43.4060   -16.1720 cd         1 JJ6      -0.060000
      6 N6          29.1780   -43.3090   -16.8660 na         1 JJ6       0.294400
      7 N7          28.2070   -44.1320   -16.4040 nd         1 JJ6      -0.599100
      8 C8          28.8860   -44.7040   -15.4100 cc         1 JJ6       0.587900
      9 N9          30.1930   -44.3000   -15.2250 nc         1 JJ6      -0.397300
     10 C10         32.5250   -40.8700   -18.0020 c3         1 JJ6       0.210900
     11 C11         28.2940   -45.7300   -14.5260 ca         1 JJ6      -0.107900
     12 C12         26.9540   -46.1510   -14.7080 ca         1 JJ6      -0.073000
     13 C13         26.3860   -47.1270   -13.8700 ca         1 JJ6      -0.123500
     14 C14         27.1440   -47.6990   -12.8380 ca         1 JJ6      -0.096000
     15 C15         28.4730   -47.2930   -12.6430 ca         1 JJ6      -0.123500
     16 C16         29.0450   -46.3180   -13.4780 ca         1 JJ6      -0.073000
     17 O17         33.2860   -41.5090   -19.0330 oh         1 JJ6      -0.654000
     18 H18         30.0630   -40.9920   -19.0950 ha         1 JJ6       0.132000
     19 H19         28.0450   -42.4270   -18.4470 h4         1 JJ6       0.162000
     20 H20         32.4270   -42.7310   -15.9200 ha         1 JJ6       0.165000
     21 H21         32.1170   -39.9170   -18.3640 h1         1 JJ6       0.031200
     22 H22         33.1680   -40.6420   -17.1400 h1         1 JJ6       0.031200
     23 H23         26.3440   -45.7250   -15.5010 ha         1 JJ6       0.130500
     24 H24         25.3550   -47.4400   -14.0240 ha         1 JJ6       0.113500
     25 H25         26.7030   -48.4540   -12.1900 ha         1 JJ6       0.111000
     26 H26         29.0630   -47.7350   -11.8430 ha         1 JJ6       0.113500
     27 H27         30.0780   -46.0240   -13.3020 ha         1 JJ6       0.130500
     28 H28         34.0020   -40.8840   -19.2850 ho         1 JJ6       0.453000
@<TRIPOS>BOND
     1     1     2 1   
     2     1     4 2   
     3     1    10 1   
     4     2     3 2   
     5     2    18 1   
     6     3     6 1   
     7     3    19 1   
     8     4     5 1   
     9     4    20 1   
    10     5     6 1   
    11     5     9 2   
    12     6     7 1   
    13     7     8 2   
    14     8     9 1   
    15     8    11 1   
    16    10    17 1   
    17    10    21 1   
    18    10    22 1   
    19    11    12 ar  
    20    11    16 ar  
    21    12    13 ar  
    22    12    23 1   
    23    13    14 ar  
    24    13    24 1   
    25    14    15 ar  
    26    14    25 1   
    27    15    16 ar  
    28    15    26 1   
    29    16    27 1   
    30    17    28 1   
@<TRIPOS>SUBSTRUCTURE
     1 JJ6         1 TEMP              0 ****  ****    0 ROOT
