@<TRIPOS>MOLECULE
JJ7
   34    34     1     0     0
SMALL
No Charge or Current Charge


@<TRIPOS>ATOM
      1 C01          4.0750    -1.9010    -0.3010 c3         1 JJ7      -0.177100
      2 C02          3.6090    -0.4750    -0.6010 c          1 JJ7       0.608100
      3 O03          4.1120     0.1450    -1.5300 o          1 JJ7      -0.607100
      4 N04          2.6250     0.1210     0.2250 n          1 JJ7      -0.409800
      5 C05          2.1180     1.4980    -0.0160 c6         1 JJ7       0.097000
      6 C06          0.6450     1.4630    -0.4830 c6         1 JJ7      -0.100900
      7 C07         -0.2430     0.7060     0.5350 c6         1 JJ7       0.178500
      8 C08          0.3420    -0.7050     0.8100 c6         1 JJ7      -0.100900
      9 C09          1.8240    -0.6160     1.2400 c6         1 JJ7       0.097000
     10 N10         -1.6320     0.6440     0.0390 n7         1 JJ7      -0.847400
     11 C11         -2.6780     0.1580     0.9790 c3         1 JJ7       0.159800
     12 C12         -4.1100     0.2420     0.3800 c3         1 JJ7       0.158600
     13 O13         -4.2220    -0.6740    -0.7290 os         1 JJ7      -0.434000
     14 C14         -5.5100    -0.6800    -1.3670 c3         1 JJ7       0.142900
     15 H011         3.2180    -2.5800    -0.3720 hc         1 JJ7       0.059700
     16 H012         4.8870    -2.2240    -0.9620 hc         1 JJ7       0.059700
     17 H013         4.3620    -1.9760     0.7530 hc         1 JJ7       0.059700
     18 H051         2.1930     2.0740     0.9170 h1         1 JJ7       0.054200
     19 H052         2.7290     2.0200    -0.7660 h1         1 JJ7       0.054200
     20 H061         0.2790     2.4900    -0.6160 hc         1 JJ7       0.057450
     21 H062         0.5870     0.9760    -1.4660 hc         1 JJ7       0.057450
     22 H071        -0.2380     1.2760     1.4760 h1         1 JJ7       0.012700
     23 H081        -0.2300    -1.2120     1.5980 hc         1 JJ7       0.057450
     24 H082         0.2590    -1.3270    -0.0920 hc         1 JJ7       0.057450
     25 H091         2.2110    -1.6270     1.4180 h1         1 JJ7       0.054200
     26 H092         1.8900    -0.0800     2.1980 h1         1 JJ7       0.054200
     27 H101        -1.9040     1.5860    -0.2610 hn         1 JJ7       0.409000
     28 H111        -2.4860    -0.8820     1.2730 h1         1 JJ7       0.035700
     29 H112        -2.6610     0.7630     1.8960 h1         1 JJ7       0.035700
     30 H121        -4.8360    -0.0180     1.1610 h1         1 JJ7       0.019200
     31 H122        -4.3120     1.2720     0.0570 h1         1 JJ7       0.019200
     32 H143        -6.2960    -0.9670    -0.6560 h1         1 JJ7       0.027033
     33 H141        -5.7500     0.3130    -1.7700 h1         1 JJ7       0.027033
     34 H142        -5.5200    -1.3980    -2.1970 h1         1 JJ7       0.027033
@<TRIPOS>BOND
     1     1     2 1   
     2     1    15 1   
     3     1    16 1   
     4     1    17 1   
     5     2     3 2   
     6     2     4 1   
     7     4     5 1   
     8     4     9 1   
     9     5     6 1   
    10     5    18 1   
    11     5    19 1   
    12     6     7 1   
    13     6    20 1   
    14     6    21 1   
    15     7     8 1   
    16     7    10 1   
    17     7    22 1   
    18     8     9 1   
    19     8    23 1   
    20     8    24 1   
    21     9    25 1   
    22     9    26 1   
    23    10    11 1   
    24    10    27 1   
    25    11    12 1   
    26    11    28 1   
    27    11    29 1   
    28    12    13 1   
    29    12    30 1   
    30    12    31 1   
    31    13    14 1   
    32    14    32 1   
    33    14    33 1   
    34    14    34 1   
@<TRIPOS>SUBSTRUCTURE
     1 JJ7         1 TEMP              0 ****  ****    0 ROOT
