@<TRIPOS>MOLECULE
JJ7
   34    34     1     0     0
SMALL
bcc


@<TRIPOS>ATOM
      1 C01          3.8900    -1.8630    -0.2870 c3         1 JJ7      -0.177100
      2 C02          3.5250    -0.4160    -0.5340 c          1 JJ7       0.675100
      3 O03          4.0890     0.2250    -1.4140 o          1 JJ7      -0.607100
      4 N04          2.5730     0.1270     0.2550 n          1 JJ7      -0.476800
      5 C05          2.0840     1.4740     0.0220 c6         1 JJ7       0.097000
      6 C06          0.6410     1.4440    -0.4640 c6         1 JJ7      -0.100900
      7 C07         -0.2580     0.6830     0.5060 c6         1 JJ7       0.178500
      8 C08          0.3250    -0.7050     0.7640 c6         1 JJ7      -0.100900
      9 C09          1.7760    -0.6060     1.2220 c6         1 JJ7       0.097000
     10 N10         -1.6030     0.6040    -0.0370 n7         1 JJ7      -0.792200
     11 C11         -2.6070     0.1900     0.9240 c3         1 JJ7       0.159800
     12 C12         -4.0020     0.2310     0.3400 c3         1 JJ7       0.135400
     13 O13         -4.1190    -0.6970    -0.7090 os         1 JJ7      -0.387600
     14 C14         -5.4020    -0.7000    -1.2760 c3         1 JJ7       0.119700
     15 H011         3.0490    -2.5290    -0.4880 hc         1 JJ7       0.059700
     16 H012         4.7060    -2.1390    -0.9500 hc         1 JJ7       0.059700
     17 H013         4.2080    -2.0390     0.7400 hc         1 JJ7       0.059700
     18 H051         2.1490     2.0370     0.9590 h1         1 JJ7       0.054200
     19 H052         2.7250     1.9730    -0.6990 h1         1 JJ7       0.054200
     20 H061         0.2810     2.4700    -0.5820 hc         1 JJ7       0.057450
     21 H062         0.5960     0.9700    -1.4490 hc         1 JJ7       0.057450
     22 H071        -0.2450     1.2300     1.4680 h1         1 JJ7       0.012700
     23 H081        -0.2430    -1.2350     1.5320 hc         1 JJ7       0.057450
     24 H082         0.2670    -1.3000    -0.1520 hc         1 JJ7       0.057450
     25 H091         2.1890    -1.5960     1.3920 h1         1 JJ7       0.054200
     26 H092         1.8240    -0.0790     2.1800 h1         1 JJ7       0.054200
     27 H101        -1.8590     1.5240    -0.3800 hn         1 JJ7       0.353800
     28 H111        -2.3930    -0.8270     1.2630 h1         1 JJ7       0.035700
     29 H112        -2.6150     0.8200     1.8280 h1         1 JJ7       0.035700
     30 H121        -4.7240     0.0130     1.1390 h1         1 JJ7       0.019200
     31 H122        -4.2270     1.2500    -0.0150 h1         1 JJ7       0.019200
     32 H143        -6.1780    -0.9610    -0.5450 h1         1 JJ7       0.027033
     33 H141        -5.6650     0.2740    -1.7080 h1         1 JJ7       0.027033
     34 H142        -5.4190    -1.4430    -2.0740 h1         1 JJ7       0.027033
@<TRIPOS>BOND
     1     1     2 1   
     2     1    15 1   
     3     1    16 1   
     4     1    17 1   
     5     2     3 2   
     6     2     4 1   
     7     4     5 1   
     8     4     9 1   
     9     5     6 1   
    10     5    18 1   
    11     5    19 1   
    12     6     7 1   
    13     6    20 1   
    14     6    21 1   
    15     7     8 1   
    16     7    10 1   
    17     7    22 1   
    18     8     9 1   
    19     8    23 1   
    20     8    24 1   
    21     9    25 1   
    22     9    26 1   
    23    10    11 1   
    24    10    27 1   
    25    11    12 1   
    26    11    28 1   
    27    11    29 1   
    28    12    13 1   
    29    12    30 1   
    30    12    31 1   
    31    13    14 1   
    32    14    32 1   
    33    14    33 1   
    34    14    34 1   
@<TRIPOS>SUBSTRUCTURE
     1 JJ7         1 TEMP              0 ****  ****    0 ROOT
