@<TRIPOS>MOLECULE
JJ8
   22    23     1     0     0
SMALL
No Charge or Current Charge


@<TRIPOS>ATOM
      1 Cl8          2.1010     1.7630     1.0680 cl         1 JJ8      -0.166000
      2 C3           1.3830     0.3980     0.2110 ca         1 JJ8       0.115000
      3 C2           0.0420     0.4810    -0.2010 ca         1 JJ8      -0.084000
      4 C4           2.1330    -0.7640    -0.0640 ca         1 JJ8       0.126000
      5 Cl7          3.8180    -0.9020     0.4380 cl         1 JJ8      -0.164000
      6 C5           1.5350    -1.8340    -0.7510 ca         1 JJ8      -0.095000
      7 C6           0.1930    -1.7490    -1.1620 ca         1 JJ8      -0.079000
      8 C1          -0.5650    -0.5930    -0.8870 ca         1 JJ8      -0.108300
      9 C9          -2.0210    -0.5120    -1.3400 c3         1 JJ8       0.121900
     10 N10         -2.9300     0.0420    -0.3240 na         1 JJ8      -0.172500
     11 C14         -3.4020     1.3360    -0.2570 cc         1 JJ8      -0.226000
     12 C13         -4.2050     1.3760     0.8530 cd         1 JJ8       0.229900
     13 N12         -4.2420     0.1430     1.4710 nd         1 JJ8      -0.668000
     14 C11         -3.4650    -0.6480     0.7440 cc         1 JJ8       0.384400
     15 H1          -0.5220     1.3850     0.0130 ha         1 JJ8       0.132000
     16 H2           2.1130    -2.7290    -0.9660 ha         1 JJ8       0.137000
     17 H3          -0.2560    -2.5850    -1.6950 ha         1 JJ8       0.129000
     18 H4          -2.0790     0.1150    -2.2390 h1         1 JJ8       0.068700
     19 H5          -2.3810    -1.5110    -1.6150 h1         1 JJ8       0.068700
     20 H6          -3.1440     2.1070    -0.9720 h4         1 JJ8       0.159000
     21 H7          -4.7580     2.2240     1.2400 h4         1 JJ8       0.039100
     22 H8          -3.2510    -1.6940     0.9290 h5         1 JJ8       0.051100
@<TRIPOS>BOND
     1     1     2 1   
     2     2     3 ar  
     3     2     4 ar  
     4     3     8 ar  
     5     3    15 1   
     6     4     5 1   
     7     4     6 ar  
     8     6     7 ar  
     9     6    16 1   
    10     7     8 ar  
    11     7    17 1   
    12     8     9 1   
    13     9    10 1   
    14     9    18 1   
    15     9    19 1   
    16    10    11 1   
    17    10    14 1   
    18    11    12 2   
    19    11    20 1   
    20    12    13 1   
    21    12    21 1   
    22    13    14 2   
    23    14    22 1   
@<TRIPOS>SUBSTRUCTURE
     1 JJ8         1 TEMP              0 ****  ****    0 ROOT
