@<TRIPOS>MOLECULE
JJ8
   22    23     1     0     0
SMALL
bcc


@<TRIPOS>ATOM
      1 CL8          2.9490     1.6980    -0.9450 cl         1 JJ8      -0.074400
      2 C3           1.7400     0.5050    -0.6570 ca         1 JJ8       0.023400
      3 C2           0.4580     0.7040    -1.1520 ca         1 JJ8      -0.102000
      4 C4           2.0360    -0.6430     0.0650 ca         1 JJ8       0.034400
      5 CL7          3.6190    -0.9080     0.6870 cl         1 JJ8      -0.072400
      6 C5           1.0450    -1.5900     0.2890 ca         1 JJ8      -0.113000
      7 C6          -0.2290    -1.3880    -0.2080 ca         1 JJ8      -0.097000
      8 C1          -0.5330    -0.2400    -0.9340 ca         1 JJ8      -0.108300
      9 C9          -1.9190    -0.0240    -1.4840 c3         1 JJ8       0.092600
     10 N10         -2.9220    -0.0200    -0.4410 na         1 JJ8      -0.193900
     11 C14         -3.0700     0.9260     0.5350 cc         1 JJ8      -0.258600
     12 C13         -4.1060     0.4890     1.3100 cd         1 JJ8       0.295200
     13 N12         -4.5870    -0.6980     0.8330 nd         1 JJ8      -0.668000
     14 C11         -3.8520    -0.9730    -0.2140 cc         1 JJ8       0.384400
     15 H1           0.2390     1.6050    -1.7120 ha         1 JJ8       0.150000
     16 H2           1.2770    -2.4840     0.8500 ha         1 JJ8       0.155000
     17 H3          -0.9890    -2.1380    -0.0260 ha         1 JJ8       0.147000
     18 H4          -1.9680     0.9150    -2.0340 h1         1 JJ8       0.068700
     19 H5          -2.1750    -0.8190    -2.1850 h1         1 JJ8       0.068700
     20 H6          -2.4450     1.8020     0.5880 h4         1 JJ8       0.177000
     21 H7          -4.5280     0.9700     2.1790 h4         1 JJ8       0.039100
     22 H8          -3.9460    -1.8410    -0.8500 h5         1 JJ8       0.051100
@<TRIPOS>BOND
     1     1     2 1   
     2     2     3 ar  
     3     2     4 ar  
     4     3     8 ar  
     5     3    15 1   
     6     4     5 1   
     7     4     6 ar  
     8     6     7 ar  
     9     6    16 1   
    10     7     8 ar  
    11     7    17 1   
    12     8     9 1   
    13     9    10 1   
    14     9    18 1   
    15     9    19 1   
    16    10    11 1   
    17    10    14 1   
    18    11    12 2   
    19    11    20 1   
    20    12    13 1   
    21    12    21 1   
    22    13    14 2   
    23    14    22 1   
@<TRIPOS>SUBSTRUCTURE
     1 JJ8         1 TEMP              0 ****  ****    0 ROOT
