@<TRIPOS>MOLECULE
JJ9
   37    38     1     0     0
SMALL
No Charge or Current Charge


@<TRIPOS>ATOM
      1 C13        -28.1900   -17.1430    15.7090 c          1 JJ9       0.613700
      2 C15        -20.5110   -19.9350    16.8110 cc         1 JJ9      -0.234000
      3 C17        -22.6630   -18.8160    16.6740 cc         1 JJ9       0.497900
      4 C20        -27.0570   -12.5640    13.5340 c3         1 JJ9      -0.179100
      5 O14        -28.9660   -17.8530    15.0810 o          1 JJ9      -0.598100
      6 N7         -28.5930   -15.9280    16.2220 ns         1 JJ9      -0.496900
      7 C8         -29.9090   -15.3190    15.9920 c3         1 JJ9       0.083000
      8 C9         -30.0690   -14.7380    14.5680 c3         1 JJ9       0.069000
      9 N10        -29.1070   -13.6610    14.2800 ns         1 JJ9      -0.516900
     10 C11        -27.8840   -13.8350    13.6720 c          1 JJ9       0.591100
     11 O12        -27.4910   -14.9190    13.2700 o          1 JJ9      -0.598100
     12 C3         -26.7540   -17.5540    15.9730 ca         1 JJ9      -0.128600
     13 C2         -25.8500   -16.7330    16.6860 ca         1 JJ9      -0.075000
     14 C4         -26.2870   -18.7970    15.4930 ca         1 JJ9      -0.075000
     15 C5         -24.9630   -19.2110    15.7170 ca         1 JJ9      -0.090000
     16 C6         -24.0580   -18.3930    16.4310 ca         1 JJ9      -0.122500
     17 C1         -24.5260   -17.1480    16.9100 ca         1 JJ9      -0.090000
     18 S16        -22.0430   -20.3460    16.0970 ss         1 JJ9      -0.002400
     19 N18        -21.7920   -18.0650    17.3430 nd         1 JJ9      -0.597000
     20 C19        -20.5500   -18.7010    17.4270 cd         1 JJ9       0.191500
     21 C21        -19.3190   -18.1720    18.1020 c          1 JJ9       0.494400
     22 O22        -19.2400   -17.0900    18.6800 o          1 JJ9      -0.488100
     23 H2         -26.0920   -12.7380    13.0440 hc         1 JJ9       0.060700
     24 H3         -27.6490   -11.8080    13.0050 hc         1 JJ9       0.060700
     25 H4         -26.9310   -12.1100    14.5240 hc         1 JJ9       0.060700
     26 H5         -27.9020   -15.3960    16.7330 hn         1 JJ9       0.312500
     27 H6         -30.0580   -14.5180    16.7290 h1         1 JJ9       0.058700
     28 H7         -30.6860   -16.0770    16.1630 h1         1 JJ9       0.058700
     29 H8         -31.0850   -14.3340    14.4630 h1         1 JJ9       0.074200
     30 H9         -29.9560   -15.5410    13.8280 h1         1 JJ9       0.074200
     31 H10        -29.3380   -12.7170    14.5700 hn         1 JJ9       0.305500
     32 H11        -26.1530   -15.7650    17.0760 ha         1 JJ9       0.130000
     33 H12        -26.9550   -19.4540    14.9390 ha         1 JJ9       0.130000
     34 H13        -24.6570   -20.1780    15.3260 ha         1 JJ9       0.130000
     35 H14        -23.8620   -16.4860    17.4630 ha         1 JJ9       0.130000
     36 H16        -18.4330   -18.8440    18.0500 h4         1 JJ9      -0.003800
     37 H1         -19.6810   -20.6260    16.7310 h4         1 JJ9       0.165000
@<TRIPOS>BOND
     1     1     5 2   
     2     1     6 1   
     3     1    12 1   
     4     2    18 1   
     5     2    20 2   
     6     2    37 1   
     7     3    16 1   
     8     3    18 1   
     9     3    19 2   
    10     4    10 1   
    11     4    23 1   
    12     4    24 1   
    13     4    25 1   
    14     6     7 1   
    15     6    26 1   
    16     7     8 1   
    17     7    27 1   
    18     7    28 1   
    19     8     9 1   
    20     8    29 1   
    21     8    30 1   
    22     9    10 1   
    23     9    31 1   
    24    10    11 2   
    25    12    13 ar  
    26    12    14 ar  
    27    13    17 ar  
    28    13    32 1   
    29    14    15 ar  
    30    14    33 1   
    31    15    16 ar  
    32    15    34 1   
    33    16    17 ar  
    34    17    35 1   
    35    19    20 1   
    36    20    21 1   
    37    21    22 2   
    38    21    36 1   
@<TRIPOS>SUBSTRUCTURE
     1 JJ9         1 TEMP              0 ****  ****    0 ROOT
