@<TRIPOS>MOLECULE
JJ9
   37    38     1     0     0
SMALL
abcg2


@<TRIPOS>ATOM
      1 C13        -28.1470   -17.0070    15.9690 c          1 JJ9       0.613700
      2 C15        -20.4240   -19.6030    16.3720 cc         1 JJ9      -0.234000
      3 C17        -22.6510   -18.6320    16.5920 cc         1 JJ9       0.497900
      4 C20        -27.1130   -12.9340    13.1280 c3         1 JJ9      -0.179100
      5 O14        -28.9670   -17.7990    15.4980 o          1 JJ9      -0.598100
      6 N7         -28.4770   -15.7580    16.3490 ns         1 JJ9      -0.496900
      7 C8         -29.8040   -15.2040    16.1430 c3         1 JJ9       0.083000
      8 C9         -30.0490   -14.7740    14.6940 c3         1 JJ9       0.069000
      9 N10        -29.0790   -13.7990    14.2330 ns         1 JJ9      -0.516900
     10 C11        -28.0270   -14.0980    13.4410 c          1 JJ9       0.591100
     11 O12        -27.8290   -15.2270    12.9870 o          1 JJ9      -0.598100
     12 C3         -26.7120   -17.3970    16.1510 ca         1 JJ9      -0.128600
     13 C2         -25.9030   -16.8530    17.1520 ca         1 JJ9      -0.075000
     14 C4         -26.1750   -18.3580    15.2950 ca         1 JJ9      -0.075000
     15 C5         -24.8560   -18.7580    15.4230 ca         1 JJ9      -0.090000
     16 C6         -24.0450   -18.2170    16.4260 ca         1 JJ9      -0.122500
     17 C1         -24.5870   -17.2610    17.2930 ca         1 JJ9      -0.090000
     18 S16        -21.8420   -19.6830    15.4340 ss         1 JJ9      -0.002400
     19 N18        -21.8860   -18.2730    17.5820 nd         1 JJ9      -0.597000
     20 C19        -20.6280   -18.8120    17.4750 cd         1 JJ9       0.191500
     21 C21        -19.5860   -18.5620    18.4710 c          1 JJ9       0.494400
     22 O22        -19.7270   -17.8750    19.4640 o          1 JJ9      -0.488100
     23 H2         -26.2500   -13.2910    12.5730 hc         1 JJ9       0.060700
     24 H3         -27.6440   -12.1910    12.5290 hc         1 JJ9       0.060700
     25 H4         -26.7810   -12.4450    14.0460 hc         1 JJ9       0.060700
     26 H5         -27.7400   -15.1170    16.5920 hn         1 JJ9       0.312500
     27 H6         -29.9080   -14.3480    16.8100 h1         1 JJ9       0.058700
     28 H7         -30.5490   -15.9480    16.4240 h1         1 JJ9       0.058700
     29 H8         -31.0520   -14.3510    14.6160 h1         1 JJ9       0.074200
     30 H9         -29.9860   -15.6380    14.0370 h1         1 JJ9       0.074200
     31 H10        -29.1530   -12.8570    14.5860 hn         1 JJ9       0.305500
     32 H11        -26.3020   -16.1260    17.8470 ha         1 JJ9       0.130000
     33 H12        -26.8010   -18.7870    14.5240 ha         1 JJ9       0.130000
     34 H13        -24.4630   -19.5020    14.7420 ha         1 JJ9       0.130000
     35 H14        -23.9700   -16.8450    18.0770 ha         1 JJ9       0.130000
     36 H16        -18.6250   -19.0590    18.2530 h4         1 JJ9      -0.003800
     37 H1         -19.5230   -20.1240    16.0880 h4         1 JJ9       0.165000
@<TRIPOS>BOND
     1     1     5 2   
     2     1     6 1   
     3     1    12 1   
     4     2    18 1   
     5     2    20 2   
     6     2    37 1   
     7     3    16 1   
     8     3    18 1   
     9     3    19 2   
    10     4    10 1   
    11     4    23 1   
    12     4    24 1   
    13     4    25 1   
    14     6     7 1   
    15     6    26 1   
    16     7     8 1   
    17     7    27 1   
    18     7    28 1   
    19     8     9 1   
    20     8    29 1   
    21     8    30 1   
    22     9    10 1   
    23     9    31 1   
    24    10    11 2   
    25    12    13 ar  
    26    12    14 ar  
    27    13    17 ar  
    28    13    32 1   
    29    14    15 ar  
    30    14    33 1   
    31    15    16 ar  
    32    15    34 1   
    33    16    17 ar  
    34    17    35 1   
    35    19    20 1   
    36    20    21 1   
    37    21    22 2   
    38    21    36 1   
@<TRIPOS>SUBSTRUCTURE
     1 JJ9         1 TEMP              0 ****  ****    0 ROOT
