@<TRIPOS>MOLECULE
JJA
   64    67     1     0     0
SMALL
No Charge or Current Charge


@<TRIPOS>ATOM
      1 O1           6.9610    -0.6650     1.1390 o          1 JJA      -0.528000
      2 O2           7.1220    -0.5570    -1.4130 o          1 JJA      -0.528000
      3 S3           6.3640    -0.8430    -0.1900 sy         1 JJA       1.180300
      4 C4           5.6790    -2.5080    -0.3050 ca         1 JJA      -0.292500
      5 C51          5.3840    -3.0610    -1.5700 ca         1 JJA      -0.003500
      6 C52          4.8440    -4.3560    -1.6610 ca         1 JJA      -0.132500
      7 C53          4.5940    -5.1020    -0.4970 ca         1 JJA      -0.052000
      8 C54          4.8840    -4.5520     0.7630 ca         1 JJA      -0.132500
      9 C55          5.4250    -3.2580     0.8630 ca         1 JJA      -0.003500
     10 N4           5.0410     0.1750    -0.2590 ns         1 JJA      -0.584300
     11 C5           4.0080     0.2530     0.6200 c          1 JJA       0.655700
     12 O91          3.9540    -0.4460     1.6200 o          1 JJA      -0.560100
     13 C6           2.9200     1.2540     0.2920 ca         1 JJA      -0.211600
     14 C7           1.8090     1.3690     1.1560 ca         1 JJA      -0.008000
     15 C8           0.7720     2.2850     0.8920 ca         1 JJA      -0.172300
     16 C9           0.8350     3.1020    -0.2530 ca         1 JJA       0.202100
     17 C10          1.9400     2.9960    -1.1210 ca         1 JJA      -0.224000
     18 C11          2.9730     2.0830    -0.8530 ca         1 JJA      -0.021000
     19 O3          -0.2020     3.9830    -0.4920 os         1 JJA      -0.331100
     20 C12         -0.2370     4.8390    -1.6450 c3         1 JJA       0.163600
     21 C13         -1.5400     5.6570    -1.5730 c3         1 JJA      -0.082400
     22 C14         -1.7110     6.6240    -2.7620 c3         1 JJA      -0.090100
     23 C15         -0.4090     2.3730     1.8490 c3         1 JJA       0.158300
     24 N99         -1.5170     1.5450     1.3840 ns         1 JJA      -0.495900
     25 C16         -2.7080     1.3950     2.0550 c          1 JJA       0.618700
     26 O99         -2.9010     1.9500     3.1290 o          1 JJA      -0.597100
     27 C17         -3.7550     0.5130     1.3980 ca         1 JJA      -0.131600
     28 C18         -3.5340    -0.1250     0.1550 ca         1 JJA      -0.092500
     29 C19         -4.5280    -0.9340    -0.4250 ca         1 JJA      -0.075500
     30 C20         -5.7830    -1.1420     0.2070 cp         1 JJA      -0.135500
     31 C21         -5.9890    -0.4940     1.4550 ca         1 JJA      -0.075500
     32 C22         -4.9980     0.3140     2.0360 ca         1 JJA      -0.092500
     33 C23         -6.8490    -2.0120    -0.4170 cp         1 JJA       0.190500
     34 N24         -6.5730    -2.5930    -1.6080 nb         1 JJA      -0.178000
     35 C25         -7.5220    -3.3700    -2.1680 ca         1 JJA       0.115900
     36 C26         -8.7600    -3.5720    -1.5390 ca         1 JJA      -0.221000
     37 C27         -8.9690    -2.9340    -0.3060 ca         1 JJA       0.115900
     38 N28         -8.0170    -2.1580     0.2500 nb         1 JJA      -0.178000
     39 H1           5.5700    -2.4950    -2.4820 ha         1 JJA       0.138000
     40 H2           4.6180    -4.7810    -2.6360 ha         1 JJA       0.120000
     41 H3           4.1760    -6.1030    -0.5710 ha         1 JJA       0.116000
     42 H4           4.6880    -5.1280     1.6650 ha         1 JJA       0.120000
     43 H5           5.6380    -2.8430     1.8480 ha         1 JJA       0.138000
     44 H6           5.0490     0.7420    -1.0860 hn         1 JJA       0.345500
     45 H7           1.7440     0.7400     2.0430 ha         1 JJA       0.136000
     46 H8           2.0170     3.6130    -2.0110 ha         1 JJA       0.126000
     47 H9           3.8070     2.0360    -1.5490 ha         1 JJA       0.116000
     48 H10          0.6240     5.5190    -1.6500 h1         1 JJA       0.036700
     49 H11         -0.2270     4.2460    -2.5680 h1         1 JJA       0.036700
     50 H12         -2.3950     4.9700    -1.5440 hc         1 JJA       0.062700
     51 H13         -1.5540     6.2310    -0.6390 hc         1 JJA       0.062700
     52 H14         -2.6500     7.1830    -2.6680 hc         1 JJA       0.036700
     53 H15         -0.8850     7.3440    -2.7980 hc         1 JJA       0.036700
     54 H16         -1.7330     6.0730    -3.7100 hc         1 JJA       0.036700
     55 H17         -0.1070     2.0360     2.8500 h1         1 JJA       0.069700
     56 H18         -0.7490     3.4140     1.9380 h1         1 JJA       0.069700
     57 H19         -1.4190     1.0690     0.4990 hn         1 JJA       0.313500
     58 H20         -2.5970    -0.0070    -0.3820 ha         1 JJA       0.124500
     59 H21         -4.3090    -1.4020    -1.3820 ha         1 JJA       0.138000
     60 H22         -6.9290    -0.6130     1.9900 ha         1 JJA       0.138000
     61 H23         -5.2040     0.7890     2.9930 ha         1 JJA       0.124500
     62 H24         -7.2860    -3.8310    -3.1250 h4         1 JJA       0.026100
     63 H25         -9.5270    -4.1970    -1.9880 ha         1 JJA       0.137000
     64 H26         -9.9040    -3.0420     0.2420 h4         1 JJA       0.026100
@<TRIPOS>BOND
     1     1     3 2   
     2     2     3 2   
     3     3     4 1   
     4     3    10 1   
     5     4     5 ar  
     6     4     9 ar  
     7     5     6 ar  
     8     5    39 1   
     9     6     7 ar  
    10     6    40 1   
    11     7     8 ar  
    12     7    41 1   
    13     8     9 ar  
    14     8    42 1   
    15     9    43 1   
    16    10    11 1   
    17    10    44 1   
    18    11    12 2   
    19    11    13 1   
    20    13    14 ar  
    21    13    18 ar  
    22    14    15 ar  
    23    14    45 1   
    24    15    16 ar  
    25    15    23 1   
    26    16    17 ar  
    27    16    19 1   
    28    17    18 ar  
    29    17    46 1   
    30    18    47 1   
    31    19    20 1   
    32    20    21 1   
    33    20    48 1   
    34    20    49 1   
    35    21    22 1   
    36    21    50 1   
    37    21    51 1   
    38    22    52 1   
    39    22    53 1   
    40    22    54 1   
    41    23    24 1   
    42    23    55 1   
    43    23    56 1   
    44    24    25 1   
    45    24    57 1   
    46    25    26 2   
    47    25    27 1   
    48    27    28 ar  
    49    27    32 ar  
    50    28    29 ar  
    51    28    58 1   
    52    29    30 ar  
    53    29    59 1   
    54    30    31 ar  
    55    30    33 1   
    56    31    32 ar  
    57    31    60 1   
    58    32    61 1   
    59    33    34 ar  
    60    33    38 ar  
    61    34    35 ar  
    62    35    36 ar  
    63    35    62 1   
    64    36    37 ar  
    65    36    63 1   
    66    37    38 ar  
    67    37    64 1   
@<TRIPOS>SUBSTRUCTURE
     1 JJA         1 TEMP              0 ****  ****    0 ROOT
