@<TRIPOS>MOLECULE
JJA
   64    67     1     0     0
SMALL
bcc


@<TRIPOS>ATOM
      1 O1           7.3770     0.0150    -0.1290 o          1 JJA      -0.598800
      2 O2           6.7700    -0.5800    -2.4920 o          1 JJA      -0.598800
      3 S3           6.4620    -0.5890    -1.0740 sy         1 JJA       1.321900
      4 C4           6.1120    -2.2440    -0.5700 ca         1 JJA      -0.292500
      5 C51          5.4650    -3.0850    -1.4680 ca         1 JJA      -0.021500
      6 C52          5.1950    -4.3890    -1.0850 ca         1 JJA      -0.150500
      7 C53          5.5770    -4.8400     0.1720 ca         1 JJA      -0.070000
      8 C54          6.2300    -3.9890     1.0540 ca         1 JJA      -0.150500
      9 C55          6.5000    -2.6780     0.6890 ca         1 JJA      -0.021500
     10 N4           4.9850     0.2000    -0.9880 ns         1 JJA      -0.651300
     11 C5           4.2960     0.3820     0.1910 c          1 JJA       0.722700
     12 O91          4.7100    -0.0810     1.2330 o          1 JJA      -0.560100
     13 C6           3.0390     1.1510     0.0870 ca         1 JJA      -0.211600
     14 C7           2.0900     1.0010     1.1010 ca         1 JJA      -0.026000
     15 C8           0.8940     1.6880     1.0840 ca         1 JJA      -0.172300
     16 C9           0.6370     2.5780     0.0220 ca         1 JJA       0.202100
     17 C10          1.5830     2.7480    -0.9880 ca         1 JJA      -0.242000
     18 C11          2.7700     2.0360    -0.9520 ca         1 JJA      -0.039000
     19 O3          -0.5300     3.2170     0.0700 os         1 JJA      -0.307900
     20 C12         -0.8940     4.1120    -0.9750 c3         1 JJA       0.140400
     21 C13         -2.2740     4.6560    -0.6770 c3         1 JJA      -0.082400
     22 C14         -2.7160     5.6340    -1.7570 c3         1 JJA      -0.090100
     23 C15         -0.1250     1.4840     2.1720 c3         1 JJA       0.158300
     24 N99         -1.3340     0.8770     1.6610 ns         1 JJA      -0.562900
     25 C16         -2.5560     1.4240     1.7770 c          1 JJA       0.685700
     26 O99         -2.7820     2.4540     2.3950 o          1 JJA      -0.597100
     27 C17         -3.6630     0.6880     1.0890 ca         1 JJA      -0.131600
     28 C18         -3.6430    -0.6890     0.8790 ca         1 JJA      -0.110500
     29 C19         -4.7040    -1.3220     0.2550 ca         1 JJA      -0.093500
     30 C20         -5.8090    -0.5930    -0.1810 cp         1 JJA      -0.135500
     31 C21         -5.8300     0.7850     0.0350 ca         1 JJA      -0.093500
     32 C22         -4.7760     1.4140     0.6720 ca         1 JJA      -0.110500
     33 C23         -6.9400    -1.2690    -0.8530 cp         1 JJA       0.716500
     34 N24         -6.8610    -2.5860    -1.0150 nb         1 JJA      -0.704000
     35 C25         -7.8780    -3.1870    -1.6140 ca         1 JJA       0.444200
     36 C26         -8.9880    -2.4890    -2.0610 ca         1 JJA      -0.369600
     37 C27         -8.9720    -1.1210    -1.8470 ca         1 JJA       0.444200
     38 N28         -7.9600    -0.5120    -1.2480 nb         1 JJA      -0.704000
     39 H1           5.1710    -2.7390    -2.4500 ha         1 JJA       0.156000
     40 H2           4.6900    -5.0540    -1.7730 ha         1 JJA       0.138000
     41 H3           5.3680    -5.8600     0.4630 ha         1 JJA       0.134000
     42 H4           6.5320    -4.3420     2.0300 ha         1 JJA       0.138000
     43 H5           7.0080    -2.0170     1.3750 ha         1 JJA       0.156000
     44 H6           4.5600     0.4070    -1.8830 hn         1 JJA       0.345500
     45 H7           2.2870     0.3170     1.9170 ha         1 JJA       0.154000
     46 H8           1.4130     3.4370    -1.8020 ha         1 JJA       0.144000
     47 H9           3.4890     2.2130    -1.7410 ha         1 JJA       0.134000
     48 H10         -0.1670     4.9290    -1.0380 h1         1 JJA       0.036700
     49 H11         -0.8890     3.5870    -1.9360 h1         1 JJA       0.036700
     50 H12         -2.9850     3.8280    -0.6130 hc         1 JJA       0.062700
     51 H13         -2.2690     5.1490     0.2970 hc         1 JJA       0.062700
     52 H14         -3.7050     6.0340    -1.5380 hc         1 JJA       0.036700
     53 H15         -2.0290     6.4780    -1.8360 hc         1 JJA       0.036700
     54 H16         -2.7630     5.1520    -2.7350 hc         1 JJA       0.036700
     55 H17          0.3070     0.8500     2.9510 h1         1 JJA       0.069700
     56 H18         -0.3930     2.4290     2.6420 h1         1 JJA       0.069700
     57 H19         -1.2150     0.0690     1.0700 hn         1 JJA       0.313500
     58 H20         -2.8130    -1.2930     1.2230 ha         1 JJA       0.142500
     59 H21         -4.6750    -2.3930     0.1100 ha         1 JJA       0.156000
     60 H22         -6.6790     1.3670    -0.2960 ha         1 JJA       0.156000
     61 H23         -4.8170     2.4820     0.8410 ha         1 JJA       0.142500
     62 H24         -7.8050    -4.2610    -1.7420 h4         1 JJA       0.026100
     63 H25         -9.8160    -2.9820    -2.5480 ha         1 JJA       0.155000
     64 H26         -9.7980    -0.4960    -2.1660 h4         1 JJA       0.026100
@<TRIPOS>BOND
     1     1     3 2   
     2     2     3 2   
     3     3     4 1   
     4     3    10 1   
     5     4     5 ar  
     6     4     9 ar  
     7     5     6 ar  
     8     5    39 1   
     9     6     7 ar  
    10     6    40 1   
    11     7     8 ar  
    12     7    41 1   
    13     8     9 ar  
    14     8    42 1   
    15     9    43 1   
    16    10    11 1   
    17    10    44 1   
    18    11    12 2   
    19    11    13 1   
    20    13    14 ar  
    21    13    18 ar  
    22    14    15 ar  
    23    14    45 1   
    24    15    16 ar  
    25    15    23 1   
    26    16    17 ar  
    27    16    19 1   
    28    17    18 ar  
    29    17    46 1   
    30    18    47 1   
    31    19    20 1   
    32    20    21 1   
    33    20    48 1   
    34    20    49 1   
    35    21    22 1   
    36    21    50 1   
    37    21    51 1   
    38    22    52 1   
    39    22    53 1   
    40    22    54 1   
    41    23    24 1   
    42    23    55 1   
    43    23    56 1   
    44    24    25 1   
    45    24    57 1   
    46    25    26 2   
    47    25    27 1   
    48    27    28 ar  
    49    27    32 ar  
    50    28    29 ar  
    51    28    58 1   
    52    29    30 ar  
    53    29    59 1   
    54    30    31 ar  
    55    30    33 1   
    56    31    32 ar  
    57    31    60 1   
    58    32    61 1   
    59    33    34 ar  
    60    33    38 ar  
    61    34    35 ar  
    62    35    36 ar  
    63    35    62 1   
    64    36    37 ar  
    65    36    63 1   
    66    37    38 ar  
    67    37    64 1   
@<TRIPOS>SUBSTRUCTURE
     1 JJA         1 TEMP              0 ****  ****    0 ROOT
