@<TRIPOS>MOLECULE
JJB
   67    70     1     0     0
SMALL
bcc


@<TRIPOS>ATOM
      1 O1          -6.6950     0.6670    -0.0720 o          1 JJB      -0.587800
      2 O2          -6.1310    -0.2720     2.1820 o          1 JJB      -0.587800
      3 S3          -5.8520    -0.1650     0.7620 s6         1 JJB       1.229600
      4 C4          -5.7610    -1.8140     0.0560 c3         1 JJB      -0.142300
      5 C50         -7.1150    -2.4460     0.1400 ca         1 JJB      -0.094300
      6 C51         -8.0350    -2.2760    -0.8910 ca         1 JJB      -0.101000
      7 C52         -9.2950    -2.8480    -0.8040 ca         1 JJB      -0.127500
      8 C53         -9.6480    -3.5880     0.3180 ca         1 JJB      -0.114000
      9 C54         -8.7360    -3.7550     1.3520 ca         1 JJB      -0.127500
     10 C55         -7.4750    -3.1820     1.2660 ca         1 JJB      -0.101000
     11 N4          -4.2770     0.4100     0.6940 ns         1 JJB      -0.657300
     12 C5          -3.6220     0.7250    -0.4770 c          1 JJB       0.722700
     13 O91         -4.1100     0.4740    -1.5590 o          1 JJB      -0.561100
     14 C6          -2.2960     1.3560    -0.3140 ca         1 JJB      -0.213600
     15 C7          -1.3920     1.2700    -1.3770 ca         1 JJB      -0.027000
     16 C8          -0.1320     1.8270    -1.3040 ca         1 JJB      -0.171300
     17 C9           0.2380     2.5170    -0.1340 ca         1 JJB       0.201100
     18 C10         -0.6600     2.6240     0.9260 ca         1 JJB      -0.240000
     19 C11         -1.9140     2.0430     0.8330 ca         1 JJB      -0.040000
     20 O3           1.4650     3.0390    -0.1300 os         1 JJB      -0.310900
     21 C12          1.9890     3.6240     1.0560 c3         1 JJB       0.139400
     22 C13          3.4400     3.9760     0.8080 c3         1 JJB      -0.084400
     23 C14          4.0690     4.5970     2.0480 c3         1 JJB      -0.089100
     24 C15          0.8450     1.6770    -2.4410 c3         1 JJB       0.159300
     25 N99          2.0120     0.9300    -2.0270 ns         1 JJB      -0.566900
     26 C16          3.2610     1.4280    -2.0290 c          1 JJB       0.688700
     27 O99          3.5830     2.4520    -2.6130 o          1 JJB      -0.593100
     28 C17          4.2690     0.6400    -1.2550 ca         1 JJB      -0.135600
     29 C18          3.9370    -0.0300    -0.0800 ca         1 JJB      -0.110000
     30 C19          4.9070    -0.6970     0.6480 ca         1 JJB      -0.094000
     31 C20          6.2310    -0.7170     0.2120 cp         1 JJB      -0.135500
     32 C21          6.5620    -0.0410    -0.9630 ca         1 JJB      -0.094000
     33 C22          5.5940     0.6390    -1.6810 ca         1 JJB      -0.110000
     34 C23          7.2660    -1.4370     0.9850 cp         1 JJB       0.715500
     35 N24          8.5130    -1.3990     0.5250 nb         1 JJB      -0.704000
     36 C25          9.4370    -2.0470     1.2200 ca         1 JJB       0.444700
     37 C26          9.1360    -2.7400     2.3800 ca         1 JJB      -0.369600
     38 C27          7.8090    -2.7170     2.7750 ca         1 JJB       0.444700
     39 N28          6.8790    -2.0720     2.0860 nb         1 JJB      -0.704000
     40 H1          -5.4130    -1.7020    -0.9700 h1         1 JJB       0.107200
     41 H2          -5.0090    -2.3530     0.6330 h1         1 JJB       0.107200
     42 H3          -7.7600    -1.7050    -1.7690 ha         1 JJB       0.140500
     43 H4         -10.0040    -2.7170    -1.6110 ha         1 JJB       0.135000
     44 H5         -10.6300    -4.0370     0.3840 ha         1 JJB       0.132000
     45 H6          -9.0050    -4.3330     2.2260 ha         1 JJB       0.135000
     46 H7          -6.7640    -3.3170     2.0710 ha         1 JJB       0.140500
     47 H8          -3.7920     0.4290     1.5830 hn         1 JJB       0.346500
     48 H9          -1.6770     0.7370    -2.2760 ha         1 JJB       0.154000
     49 H10         -0.4020     3.1650     1.8260 ha         1 JJB       0.145000
     50 H11         -2.5920     2.1670     1.6680 ha         1 JJB       0.135000
     51 H12          1.4180     4.5220     1.3200 h1         1 JJB       0.035700
     52 H13          1.9040     2.9180     1.8900 h1         1 JJB       0.035700
     53 H14          3.9870     3.0740     0.5240 hc         1 JJB       0.064700
     54 H15          3.5090     4.6690    -0.0330 hc         1 JJB       0.064700
     55 H16          3.5390     5.5000     2.3540 hc         1 JJB       0.036700
     56 H17          4.0610     3.9040     2.8900 hc         1 JJB       0.036700
     57 H18          5.1060     4.8730     1.8590 hc         1 JJB       0.036700
     58 H19          0.3540     1.1720    -3.2750 h1         1 JJB       0.070200
     59 H20          1.1760     2.6480    -2.8070 h1         1 JJB       0.070200
     60 H21          1.8470     0.0270    -1.6120 hn         1 JJB       0.313500
     61 H22          2.9210    -0.0170     0.2970 ha         1 JJB       0.143500
     62 H23          4.6340    -1.2010     1.5640 ha         1 JJB       0.156000
     63 H24          7.5840    -0.0450    -1.3130 ha         1 JJB       0.156000
     64 H25          5.8720     1.1650    -2.5840 ha         1 JJB       0.143500
     65 H26         10.4500    -2.0100     0.8380 h4         1 JJB       0.026600
     66 H27          9.8920    -3.2670     2.9440 ha         1 JJB       0.155000
     67 H28          7.4840    -3.2320     3.6720 h4         1 JJB       0.026600
@<TRIPOS>BOND
     1     1     3 2   
     2     2     3 2   
     3     3     4 1   
     4     3    11 1   
     5     4     5 1   
     6     4    40 1   
     7     4    41 1   
     8     5     6 ar  
     9     5    10 ar  
    10     6     7 ar  
    11     6    42 1   
    12     7     8 ar  
    13     7    43 1   
    14     8     9 ar  
    15     8    44 1   
    16     9    10 ar  
    17     9    45 1   
    18    10    46 1   
    19    11    12 1   
    20    11    47 1   
    21    12    13 2   
    22    12    14 1   
    23    14    15 ar  
    24    14    19 ar  
    25    15    16 ar  
    26    15    48 1   
    27    16    17 ar  
    28    16    24 1   
    29    17    18 ar  
    30    17    20 1   
    31    18    19 ar  
    32    18    49 1   
    33    19    50 1   
    34    20    21 1   
    35    21    22 1   
    36    21    51 1   
    37    21    52 1   
    38    22    23 1   
    39    22    53 1   
    40    22    54 1   
    41    23    55 1   
    42    23    56 1   
    43    23    57 1   
    44    24    25 1   
    45    24    58 1   
    46    24    59 1   
    47    25    26 1   
    48    25    60 1   
    49    26    27 2   
    50    26    28 1   
    51    28    29 ar  
    52    28    33 ar  
    53    29    30 ar  
    54    29    61 1   
    55    30    31 ar  
    56    30    62 1   
    57    31    32 ar  
    58    31    34 1   
    59    32    33 ar  
    60    32    63 1   
    61    33    64 1   
    62    34    35 ar  
    63    34    39 ar  
    64    35    36 ar  
    65    36    37 ar  
    66    36    65 1   
    67    37    38 ar  
    68    37    66 1   
    69    38    39 ar  
    70    38    67 1   
@<TRIPOS>SUBSTRUCTURE
     1 JJB         1 TEMP              0 ****  ****    0 ROOT
