@<TRIPOS>MOLECULE
JJB
   67    70     1     0     0
SMALL
No Charge or Current Charge


@<TRIPOS>ATOM
      1 O1          -6.3160     0.1120    -1.3470 o          1 JJB      -0.517000
      2 O2          -6.7300     0.5140     1.1280 o          1 JJB      -0.517000
      3 S3          -5.8790     0.0010     0.0500 s6         1 JJB       1.198800
      4 C4          -5.4910    -1.7280     0.3990 c3         1 JJB      -0.253100
      5 C50         -6.6900    -2.6700     0.3600 ca         1 JJB      -0.094300
      6 C51         -7.0510    -3.3090    -0.8420 ca         1 JJB      -0.083000
      7 C52         -8.1550    -4.1790    -0.8770 ca         1 JJB      -0.109500
      8 C53         -8.9030    -4.4150     0.2890 ca         1 JJB      -0.096000
      9 C54         -8.5450    -3.7810     1.4910 ca         1 JJB      -0.109500
     10 C55         -7.4410    -2.9110     1.5270 ca         1 JJB      -0.083000
     11 N4          -4.4020     0.7670     0.2020 ns         1 JJB      -0.590300
     12 C5          -3.3520     0.7320    -0.6590 c          1 JJB       0.655700
     13 O91         -3.3510     0.0090    -1.6430 o          1 JJB      -0.561100
     14 C6          -2.1730     1.6170    -0.3200 ca         1 JJB      -0.213600
     15 C7          -1.0520     1.6270    -1.1810 ca         1 JJB      -0.009000
     16 C8           0.0690     2.4350    -0.9080 ca         1 JJB      -0.171300
     17 C9           0.0830     3.2470     0.2420 ca         1 JJB       0.201100
     18 C10         -1.0300     3.2450     1.1070 ca         1 JJB      -0.222000
     19 C11         -2.1470     2.4400     0.8300 ca         1 JJB      -0.022000
     20 O3           1.2000     4.0210     0.4890 os         1 JJB      -0.334100
     21 C12          1.3160     4.8620     1.6480 c3         1 JJB       0.162600
     22 C13          2.6930     5.5490     1.5850 c3         1 JJB      -0.084400
     23 C14          2.9540     6.4870     2.7800 c3         1 JJB      -0.089100
     24 C15          1.2550     2.4130    -1.8610 c3         1 JJB       0.159300
     25 N99          2.2760     1.4770    -1.3990 ns         1 JJB      -0.499900
     26 C16          3.4490     1.2150    -2.0690 c          1 JJB       0.621700
     27 O99          3.6980     1.7560    -3.1380 o          1 JJB      -0.593100
     28 C17          4.4020     0.2320    -1.4150 ca         1 JJB      -0.135600
     29 C18          4.1170    -0.3890    -0.1760 ca         1 JJB      -0.092000
     30 C19          5.0250    -1.2940     0.4000 ca         1 JJB      -0.076000
     31 C20          6.2560    -1.6210    -0.2310 cp         1 JJB      -0.135500
     32 C21          6.5270    -0.9890    -1.4750 ca         1 JJB      -0.076000
     33 C22          5.6210    -0.0840    -2.0520 ca         1 JJB      -0.092000
     34 C23          7.2290    -2.5940     0.3900 cp         1 JJB       0.189500
     35 N24          8.3800    -2.8510    -0.2750 nb         1 JJB      -0.178000
     36 C25          9.2500    -3.7190     0.2770 ca         1 JJB       0.116400
     37 C26          8.9770    -4.3410     1.5060 ca         1 JJB      -0.221000
     38 C27          7.7630    -4.0220     2.1340 ca         1 JJB       0.116400
     39 N28          6.8950    -3.1530     1.5770 nb         1 JJB      -0.178000
     40 H1          -4.7440    -2.0230    -0.3460 h1         1 JJB       0.107200
     41 H2          -5.0230    -1.7350     1.3890 h1         1 JJB       0.107200
     42 H3          -6.4780    -3.1310    -1.7500 ha         1 JJB       0.122500
     43 H4          -8.4310    -4.6690    -1.8080 ha         1 JJB       0.117000
     44 H5          -9.7570    -5.0880     0.2610 ha         1 JJB       0.114000
     45 H6          -9.1220    -3.9630     2.3940 ha         1 JJB       0.117000
     46 H7          -7.1710    -2.4240     2.4620 ha         1 JJB       0.122500
     47 H8          -4.3750     1.3690     1.0040 hn         1 JJB       0.346500
     48 H9          -1.0460     1.0010    -2.0720 ha         1 JJB       0.136000
     49 H10         -1.0490     3.8600     2.0010 ha         1 JJB       0.127000
     50 H11         -2.9820     2.4700     1.5250 ha         1 JJB       0.117000
     51 H12          0.5250     5.6240     1.6550 h1         1 JJB       0.035700
     52 H13          1.2440     4.2670     2.5680 h1         1 JJB       0.035700
     53 H14          3.4770     4.7810     1.5530 hc         1 JJB       0.064700
     54 H15          2.7660     6.1240     0.6540 hc         1 JJB       0.064700
     55 H16          2.2030     7.2850     2.8190 hc         1 JJB       0.036700
     56 H17          2.9190     5.9310     3.7250 hc         1 JJB       0.036700
     57 H18          3.9440     6.9520     2.6930 hc         1 JJB       0.036700
     58 H19          0.9250     2.1140    -2.8650 h1         1 JJB       0.070200
     59 H20          1.6960     3.4160    -1.9420 h1         1 JJB       0.070200
     60 H21          2.1290     1.0080    -0.5170 hn         1 JJB       0.313500
     61 H22          3.1940    -0.1830     0.3600 ha         1 JJB       0.125500
     62 H23          4.7590    -1.7450     1.3540 ha         1 JJB       0.138000
     63 H24          7.4520    -1.1970    -2.0090 ha         1 JJB       0.138000
     64 H25          5.8750     0.3740    -3.0060 ha         1 JJB       0.125500
     65 H26         10.1710    -3.9150    -0.2700 h4         1 JJB       0.026600
     66 H27          9.6780    -5.0410     1.9530 ha         1 JJB       0.137000
     67 H28          7.4800    -4.4630     3.0880 h4         1 JJB       0.026600
@<TRIPOS>BOND
     1     1     3 2   
     2     2     3 2   
     3     3     4 1   
     4     3    11 1   
     5     4     5 1   
     6     4    40 1   
     7     4    41 1   
     8     5     6 ar  
     9     5    10 ar  
    10     6     7 ar  
    11     6    42 1   
    12     7     8 ar  
    13     7    43 1   
    14     8     9 ar  
    15     8    44 1   
    16     9    10 ar  
    17     9    45 1   
    18    10    46 1   
    19    11    12 1   
    20    11    47 1   
    21    12    13 2   
    22    12    14 1   
    23    14    15 ar  
    24    14    19 ar  
    25    15    16 ar  
    26    15    48 1   
    27    16    17 ar  
    28    16    24 1   
    29    17    18 ar  
    30    17    20 1   
    31    18    19 ar  
    32    18    49 1   
    33    19    50 1   
    34    20    21 1   
    35    21    22 1   
    36    21    51 1   
    37    21    52 1   
    38    22    23 1   
    39    22    53 1   
    40    22    54 1   
    41    23    55 1   
    42    23    56 1   
    43    23    57 1   
    44    24    25 1   
    45    24    58 1   
    46    24    59 1   
    47    25    26 1   
    48    25    60 1   
    49    26    27 2   
    50    26    28 1   
    51    28    29 ar  
    52    28    33 ar  
    53    29    30 ar  
    54    29    61 1   
    55    30    31 ar  
    56    30    62 1   
    57    31    32 ar  
    58    31    34 1   
    59    32    33 ar  
    60    32    63 1   
    61    33    64 1   
    62    34    35 ar  
    63    34    39 ar  
    64    35    36 ar  
    65    36    37 ar  
    66    36    65 1   
    67    37    38 ar  
    68    37    66 1   
    69    38    39 ar  
    70    38    67 1   
@<TRIPOS>SUBSTRUCTURE
     1 JJB         1 TEMP              0 ****  ****    0 ROOT
