@<TRIPOS>MOLECULE
JJD
   50    52     1     0     0
SMALL
bcc


@<TRIPOS>ATOM
      1 C1           1.6310    -0.8120     1.2530 c6         1 JJD       0.228200
      2 N2           0.8360     0.3390     1.6370 n          1 JJD      -0.422800
      3 C3          -0.3000     0.6860     1.0150 c          1 JJD       0.833500
      4 N4          -0.8660    -0.2960     0.1860 n          1 JJD      -0.344200
      5 C5          -0.4370    -1.6150     0.1700 c2         1 JJD       0.159400
      6 C6           0.7720    -1.9200     0.7020 ce         1 JJD      -0.338400
      7 C7           2.7540    -0.4300     0.3000 ca         1 JJD      -0.056300
      8 C8           4.0430    -0.2510     0.7860 ca         1 JJD      -0.093500
      9 C9           5.0730     0.1330    -0.0560 ca         1 JJD      -0.083000
     10 C10          4.8070     0.3380    -1.4070 ca         1 JJD      -0.026000
     11 C11          3.5180     0.1480    -1.9100 ca         1 JJD      -0.083000
     12 C12          2.5050    -0.2350    -1.0550 ca         1 JJD      -0.093500
     13 C13          5.8600     0.7320    -2.2850 cg         1 JJD       0.261800
     14 N14          6.7100     1.0480    -2.9960 n1         1 JJD      -0.414800
     15 C15          1.3310    -3.2820     0.7110 c          1 JJD       0.608300
     16 O16          0.9170    -4.1760    -0.0080 o          1 JJD      -0.573100
     17 C17          2.4890    -3.5530     1.6410 c3         1 JJD      -0.196100
     18 C18         -1.9840     0.1150    -0.5950 ca         1 JJD       0.066600
     19 C19         -3.2120     0.3560     0.0010 ca         1 JJD      -0.057000
     20 C20         -4.2880     0.7450    -0.7850 ca         1 JJD      -0.199300
     21 C21         -4.1400     0.8920    -2.1590 ca         1 JJD      -0.086000
     22 C22         -2.9090     0.6450    -2.7450 ca         1 JJD      -0.136000
     23 C23         -1.8290     0.2630    -1.9650 ca         1 JJD      -0.087000
     24 C24         -5.5960     1.0400    -0.1180 c3         1 JJD       0.721200
     25 F25         -5.5700     2.2240     0.5110 f          1 JJD      -0.238300
     26 F26         -6.6140     1.0810    -0.9820 f          1 JJD      -0.238300
     27 F27         -5.9020     0.1230     0.8090 f          1 JJD      -0.238300
     28 C28         -1.4080    -2.5940    -0.4100 c3         1 JJD      -0.076900
     29 O29         -0.8780     1.7440     1.1780 o          1 JJD      -0.618500
     30 C30          1.4980     1.3410     2.4450 c3         1 JJD      -0.058000
     31 C31          2.2140     2.4600     1.6520 c          1 JJD       0.921600
     32 O32          2.9090     3.2170     2.3600 o          1 JJD      -0.821800
     33 O33          2.0220     2.5200     0.4300 o          1 JJD      -0.821800
     34 H1           2.0990    -1.1550     2.1790 h1         1 JJD       0.055700
     35 H8           4.2530    -0.4150     1.8360 ha         1 JJD       0.130000
     36 H9           6.0740     0.2700     0.3300 ha         1 JJD       0.130500
     37 H11          3.3180     0.3010    -2.9620 ha         1 JJD       0.130500
     38 H12          1.5100    -0.3840    -1.4540 ha         1 JJD       0.130000
     39 H17          2.2780    -3.2280     2.6600 hc         1 JJD       0.057033
     40 H17A         2.7140    -4.6170     1.6490 hc         1 JJD       0.057033
     41 H17B         3.3850    -3.0220     1.3120 hc         1 JJD       0.057033
     42 H19         -3.3180     0.2210     1.0690 ha         1 JJD       0.160000
     43 H21         -4.9730     1.1930    -2.7810 ha         1 JJD       0.140000
     44 H22         -2.7900     0.7560    -3.8140 ha         1 JJD       0.136000
     45 H23         -0.8650     0.0770    -2.4220 ha         1 JJD       0.150000
     46 H28         -2.4320    -2.3040    -0.1840 hc         1 JJD       0.060700
     47 H28A        -1.3130    -2.6420    -1.4970 hc         1 JJD       0.060700
     48 H28B        -1.2410    -3.5930    -0.0290 hc         1 JJD       0.060700
     49 H30          0.7720     1.8030     3.1170 h1         1 JJD       0.041700
     50 H30A         2.2160     0.8240     3.0850 h1         1 JJD       0.041700
@<TRIPOS>BOND
     1     1     2 1   
     2     1     6 1   
     3     1     7 1   
     4     1    34 1   
     5     2     3 1   
     6     2    30 1   
     7     3     4 1   
     8     3    29 2   
     9     4     5 1   
    10     4    18 1   
    11     5     6 2   
    12     5    28 1   
    13     6    15 1   
    14     7     8 ar  
    15     7    12 ar  
    16     8     9 ar  
    17     8    35 1   
    18     9    10 ar  
    19     9    36 1   
    20    10    11 ar  
    21    10    13 1   
    22    11    12 ar  
    23    11    37 1   
    24    12    38 1   
    25    13    14 3   
    26    15    16 2   
    27    15    17 1   
    28    17    39 1   
    29    17    40 1   
    30    17    41 1   
    31    18    19 ar  
    32    18    23 ar  
    33    19    20 ar  
    34    19    42 1   
    35    20    21 ar  
    36    20    24 1   
    37    21    22 ar  
    38    21    43 1   
    39    22    23 ar  
    40    22    44 1   
    41    23    45 1   
    42    24    25 1   
    43    24    26 1   
    44    24    27 1   
    45    28    46 1   
    46    28    47 1   
    47    28    48 1   
    48    30    31 1   
    49    30    49 1   
    50    30    50 1   
    51    31    32 1   
    52    31    33 1   
@<TRIPOS>SUBSTRUCTURE
     1 JJD         1 TEMP              0 ****  ****    0 ROOT
