@<TRIPOS>MOLECULE
JJD
   50    52     1     0     0
SMALL
No Charge or Current Charge


@<TRIPOS>ATOM
      1 C1           1.8390    -0.6560     1.1730 c6         1 JJD       0.228200
      2 N2           0.9900     0.4640     1.6080 n          1 JJD      -0.355800
      3 C3          -0.2730     0.7070     1.0230 c          1 JJD       0.624000
      4 N4          -0.8330    -0.2920     0.1800 n          1 JJD      -0.184600
      5 C5          -0.2560    -1.5880     0.1780 c2         1 JJD       0.159400
      6 C6           1.0050    -1.7880     0.6180 ce         1 JJD      -0.338400
      7 C7           2.8900    -0.2130     0.1470 ca         1 JJD      -0.056300
      8 C8           4.2610    -0.3590     0.4350 ca         1 JJD      -0.075500
      9 C9           5.2310     0.0390    -0.5010 ca         1 JJD      -0.065000
     10 C10          4.8400     0.5850    -1.7380 ca         1 JJD      -0.026000
     11 C11          3.4710     0.7290    -2.0320 ca         1 JJD      -0.065000
     12 C12          2.5020     0.3320    -1.0950 ca         1 JJD      -0.075500
     13 C13          5.8320     0.9920    -2.6960 cg         1 JJD       0.351000
     14 N14          6.6380     1.3140    -3.4780 n1         1 JJD      -0.504000
     15 C15          1.6330    -3.1310     0.6990 c          1 JJD       0.608300
     16 O16          2.1510    -3.6540    -0.2770 o          1 JJD      -0.573100
     17 C17          1.5220    -3.8620     2.0330 c3         1 JJD      -0.196100
     18 C18         -1.9940     0.0110    -0.6190 ca         1 JJD      -0.026000
     19 C19         -3.2000     0.4280    -0.0190 ca         1 JJD      -0.039000
     20 C20         -4.3420     0.7000    -0.8050 ca         1 JJD      -0.199300
     21 C21         -4.2570     0.5600    -2.2070 ca         1 JJD      -0.068000
     22 C22         -3.0590     0.1400    -2.8070 ca         1 JJD      -0.118000
     23 C23         -1.9320    -0.1390    -2.0170 ca         1 JJD      -0.069000
     24 C24         -5.6420     1.1630    -0.1380 c3         1 JJD       0.357300
     25 F25         -5.6390     2.4980     0.0700 f          1 JJD      -0.117000
     26 F26         -6.7360     0.8810    -0.8820 f          1 JJD      -0.117000
     27 F27         -5.8340     0.5760     1.0660 f          1 JJD      -0.117000
     28 C28         -1.1190    -2.7530    -0.2990 c3         1 JJD      -0.076900
     29 O29         -0.8590     1.7640     1.2280 o          1 JJD      -0.543000
     30 C30          1.5620     1.4110     2.6160 c3         1 JJD      -0.058000
     31 C31          2.6070     2.4190     2.0730 c          1 JJD       0.711000
     32 O32          3.7490     2.3490     2.5050 o          1 JJD      -0.716500
     33 O33          2.2450     3.2560     1.2580 o          1 JJD      -0.716500
     34 H1           2.3690    -1.0290     2.0620 h1         1 JJD       0.055700
     35 H8           4.5790    -0.7780     1.3870 ha         1 JJD       0.112000
     36 H9           6.2860    -0.0790    -0.2620 ha         1 JJD       0.112500
     37 H11          3.1550     1.1490    -2.9850 ha         1 JJD       0.112500
     38 H12          1.4490     0.4480    -1.3390 ha         1 JJD       0.112000
     39 H17          0.4920    -3.7870     2.4020 hc         1 JJD       0.057033
     40 H17A         1.8670    -4.9010     1.9780 hc         1 JJD       0.057033
     41 H17B         2.0780    -3.2990     2.7910 hc         1 JJD       0.057033
     42 H19         -3.2480     0.5340     1.0630 ha         1 JJD       0.142000
     43 H21         -5.1170     0.7770    -2.8390 ha         1 JJD       0.122000
     44 H22         -3.0030     0.0300    -3.8880 ha         1 JJD       0.118000
     45 H23         -1.0090    -0.4630    -2.4920 ha         1 JJD       0.132000
     46 H28         -2.1890    -2.5560    -0.1630 hc         1 JJD       0.060700
     47 H28A        -0.9470    -2.9540    -1.3620 hc         1 JJD       0.060700
     48 H28B        -0.9120    -3.6770     0.2520 hc         1 JJD       0.060700
     49 H30          0.7590     1.9870     3.0910 h1         1 JJD       0.041700
     50 H30A         2.0400     0.8250     3.4110 h1         1 JJD       0.041700
@<TRIPOS>BOND
     1     1     2 1   
     2     1     6 1   
     3     1     7 1   
     4     1    34 1   
     5     2     3 1   
     6     2    30 1   
     7     3     4 1   
     8     3    29 2   
     9     4     5 1   
    10     4    18 1   
    11     5     6 2   
    12     5    28 1   
    13     6    15 1   
    14     7     8 ar  
    15     7    12 ar  
    16     8     9 ar  
    17     8    35 1   
    18     9    10 ar  
    19     9    36 1   
    20    10    11 ar  
    21    10    13 1   
    22    11    12 ar  
    23    11    37 1   
    24    12    38 1   
    25    13    14 3   
    26    15    16 2   
    27    15    17 1   
    28    17    39 1   
    29    17    40 1   
    30    17    41 1   
    31    18    19 ar  
    32    18    23 ar  
    33    19    20 ar  
    34    19    42 1   
    35    20    21 ar  
    36    20    24 1   
    37    21    22 ar  
    38    21    43 1   
    39    22    23 ar  
    40    22    44 1   
    41    23    45 1   
    42    24    25 1   
    43    24    26 1   
    44    24    27 1   
    45    28    46 1   
    46    28    47 1   
    47    28    48 1   
    48    30    31 1   
    49    30    49 1   
    50    30    50 1   
    51    31    32 1   
    52    31    33 1   
@<TRIPOS>SUBSTRUCTURE
     1 JJD         1 TEMP              0 ****  ****    0 ROOT
