@<TRIPOS>MOLECULE
JJE
   53    55     1     0     0
SMALL
No Charge or Current Charge


@<TRIPOS>ATOM
      1 C7           0.5240     4.4680    -1.0320 c3         1 JJE       0.299000
      2 C8          -0.3460     3.3700    -0.3540 c3         1 JJE       0.109300
      3 C13         -1.4490     0.6510    -0.0210 ca         1 JJE      -0.169000
      4 C15          0.8430    -0.1400     0.3490 ca         1 JJE      -0.153600
      5 C20          6.6810    -0.8480     1.5140 ca         1 JJE      -0.146000
      6 C21          7.3280    -1.6580     0.5660 ca         1 JJE      -0.078000
      7 C22          6.5790    -2.2680    -0.4530 ca         1 JJE      -0.113000
      8 C23          5.1910    -2.0610    -0.5320 ca         1 JJE       0.125000
      9 C19          5.2940    -0.6370     1.4360 ca         1 JJE       0.194000
     10 F25          4.6990     0.0920     2.4060 f          1 JJE      -0.161000
     11 C18          4.5340    -1.2280     0.3980 ca         1 JJE      -0.083000
     12 N17          3.1260    -1.0460     0.2840 ns         1 JJE      -0.158000
     13 C1           2.3450     0.0940     0.4180 c          1 JJE       0.632700
     14 O2           2.8460     1.1990     0.5950 o          1 JJE      -0.538100
     15 C16         -0.0590     0.9090     0.0330 ca         1 JJE       0.173100
     16 O14          0.4450     2.1600    -0.2750 os         1 JJE      -0.323100
     17 C3          -0.7950     3.7460     1.0830 c3         1 JJE      -0.115100
     18 F5           0.8990     4.0860    -2.2750 f          1 JJE      -0.107667
     19 F6          -0.1660     5.6260    -1.1520 f          1 JJE      -0.107667
     20 F4           1.6470     4.7260    -0.3210 f          1 JJE      -0.107667
     21 C9           0.3130    -1.4300     0.6170 ca         1 JJE      -0.094000
     22 C11         -1.0680    -1.6690     0.5720 ca         1 JJE       0.149000
     23 F10         -1.5210    -2.9200     0.8220 f          1 JJE      -0.153000
     24 C12         -1.9630    -0.6300     0.2500 ca         1 JJE       0.095600
     25 N26         -3.3810    -0.8600     0.2010 n          1 JJE      -0.086000
     26 N30         -4.0970    -1.4510     1.2430 n2         1 JJE      -0.420300
     27 C27         -4.2190    -0.4340    -0.8320 c          1 JJE       0.573000
     28 O31         -3.9200     0.1300    -1.8770 o          1 JJE      -0.550000
     29 N28         -5.4610    -0.7990    -0.4070 n          1 JJE      -0.332300
     30 C32         -6.6990    -0.5310    -1.1620 c3         1 JJE       0.125000
     31 C35         -7.1590    -1.7380    -1.9980 c3         1 JJE      -0.118100
     32 C29         -5.3440    -1.3900     0.8360 cc         1 JJE       0.356900
     33 C34         -6.5170    -1.9060     1.6550 c3         1 JJE       0.156300
     34 O33         -7.2990    -0.8450     2.2410 oh         1 JJE      -0.624000
     35 H1          -1.2270     3.2250    -0.9910 h1         1 JJE       0.083700
     36 H2          -2.1500     1.4380    -0.2730 ha         1 JJE       0.143000
     37 H3           7.2510    -0.3920     2.3200 ha         1 JJE       0.138000
     38 H4           8.4020    -1.8220     0.6280 ha         1 JJE       0.123000
     39 H5           7.0740    -2.9040    -1.1830 ha         1 JJE       0.135000
     40 H6           2.6150    -1.8850     0.0430 hn         1 JJE       0.169000
     41 H7          -1.3590     4.6860     1.0790 hc         1 JJE       0.062367
     42 H8          -1.4420     2.9740     1.5150 hc         1 JJE       0.062367
     43 H9           0.0720     3.8710     1.7430 hc         1 JJE       0.062367
     44 H10          0.9570    -2.2640     0.8850 ha         1 JJE       0.147000
     45 H11         -7.4950    -0.2530    -0.4590 h1         1 JJE       0.061700
     46 H12         -6.5390     0.3270    -1.8270 h1         1 JJE       0.061700
     47 H13         -6.3890    -2.0150    -2.7290 hc         1 JJE       0.051033
     48 H14         -7.3570    -2.6060    -1.3590 hc         1 JJE       0.051033
     49 H15         -8.0780    -1.4950    -2.5430 hc         1 JJE       0.051033
     50 H16         -7.1500    -2.5270     1.0080 h1         1 JJE       0.035700
     51 H17         -6.1280    -2.5630     2.4440 h1         1 JJE       0.035700
     52 H18         -8.0020    -1.2680     2.7830 ho         1 JJE       0.453000
     53 Cl           4.2860    -2.8460    -1.8260 cl         1 JJE      -0.180000
@<TRIPOS>BOND
     1     1     2 1   
     2     1    18 1   
     3     1    19 1   
     4     1    20 1   
     5     2    16 1   
     6     2    17 1   
     7     2    35 1   
     8     3    15 ar  
     9     3    24 ar  
    10     3    36 1   
    11     4    13 1   
    12     4    15 ar  
    13     4    21 ar  
    14     5     6 ar  
    15     5     9 ar  
    16     5    37 1   
    17     6     7 ar  
    18     6    38 1   
    19     7     8 ar  
    20     7    39 1   
    21     8    11 ar  
    22     8    53 1   
    23     9    10 1   
    24     9    11 ar  
    25    11    12 1   
    26    12    13 1   
    27    12    40 1   
    28    13    14 2   
    29    15    16 1   
    30    17    41 1   
    31    17    42 1   
    32    17    43 1   
    33    21    22 ar  
    34    21    44 1   
    35    22    23 1   
    36    22    24 ar  
    37    24    25 1   
    38    25    26 1   
    39    25    27 1   
    40    26    32 2   
    41    27    28 2   
    42    27    29 1   
    43    29    30 1   
    44    29    32 1   
    45    30    31 1   
    46    30    45 1   
    47    30    46 1   
    48    31    47 1   
    49    31    48 1   
    50    31    49 1   
    51    32    33 1   
    52    33    34 1   
    53    33    50 1   
    54    33    51 1   
    55    34    52 1   
@<TRIPOS>SUBSTRUCTURE
     1 JJE         1 TEMP              0 ****  ****    0 ROOT
