@<TRIPOS>MOLECULE
JJE
   53    55     1     0     0
SMALL
abcg2


@<TRIPOS>ATOM
      1 C7           1.1720     3.2980    -1.5380 c3         1 JJE       0.299000
      2 C8          -0.0180     2.9080    -0.6710 c3         1 JJE       0.109300
      3 C13         -1.5150     0.7050     0.4250 ca         1 JJE      -0.169000
      4 C15          0.6400    -0.2520     0.9180 ca         1 JJE      -0.153600
      5 C20          6.3020    -1.4290     1.5640 ca         1 JJE      -0.146000
      6 C21          7.0200    -1.1050     0.4220 ca         1 JJE      -0.078000
      7 C22          6.3700    -0.7430    -0.7480 ca         1 JJE      -0.113000
      8 C23          4.9850    -0.6960    -0.7630 ca         1 JJE       0.125000
      9 C19          4.9250    -1.3910     1.5090 ca         1 JJE       0.194000
     10 F25          4.2170    -1.7240     2.5900 f          1 JJE      -0.161000
     11 C18          4.2320    -1.0260     0.3610 ca         1 JJE      -0.083000
     12 N17          2.8320    -1.0030     0.3450 ns         1 JJE      -0.158000
     13 C1           2.1190    -0.1090     1.0750 c          1 JJE       0.632700
     14 O2           2.6280     0.7170     1.8010 o          1 JJE      -0.538100
     15 C16         -0.1370     0.8390     0.5230 ca         1 JJE       0.173100
     16 O14          0.5110     1.9930     0.2720 os         1 JJE      -0.323100
     17 C3          -0.6620     4.0970     0.0140 c3         1 JJE      -0.115100
     18 F5           1.7000     2.2350    -2.1500 f          1 JJE      -0.107667
     19 F6           0.8020     4.1660    -2.4860 f          1 JJE      -0.107667
     20 F4           2.1480     3.8730    -0.8300 f          1 JJE      -0.107667
     21 C9           0.0280    -1.4690     1.1850 ca         1 JJE      -0.094000
     22 C11         -1.3380    -1.5970     1.0570 ca         1 JJE       0.149000
     23 F10         -1.9040    -2.7860     1.2810 f          1 JJE      -0.153000
     24 C12         -2.1250    -0.5170     0.6850 ca         1 JJE       0.095600
     25 N26         -3.5090    -0.6490     0.5540 n          1 JJE      -0.086000
     26 N30         -4.2610    -1.2820     1.5050 n2         1 JJE      -0.420300
     27 C27         -4.2550    -0.2470    -0.5250 c          1 JJE       0.573000
     28 O31         -3.8930     0.3200    -1.5370 o          1 JJE      -0.550000
     29 N28         -5.5230    -0.6500    -0.1820 n          1 JJE      -0.332300
     30 C32         -6.6760    -0.5100    -1.0530 c3         1 JJE       0.125000
     31 C35         -6.7640    -1.6260    -2.0790 c3         1 JJE      -0.118100
     32 C29         -5.4570    -1.2680     1.0340 cc         1 JJE       0.356900
     33 C34         -6.6540    -1.8390     1.7130 c3         1 JJE       0.156300
     34 O33         -6.2450    -2.4090     2.9190 oh         1 JJE      -0.624000
     35 H1          -0.7390     2.4140    -1.3320 h1         1 JJE       0.083700
     36 H2          -2.1380     1.5500     0.1690 ha         1 JJE       0.143000
     37 H3           6.8010    -1.7190     2.4790 ha         1 JJE       0.138000
     38 H4           8.1010    -1.1350     0.4440 ha         1 JJE       0.123000
     39 H5           6.9330    -0.4880    -1.6350 ha         1 JJE       0.135000
     40 H6           2.3540    -1.5600    -0.3490 hn         1 JJE       0.169000
     41 H7          -1.0600     4.8000    -0.7160 hc         1 JJE       0.062367
     42 H8          -1.4970     3.7640     0.6290 hc         1 JJE       0.062367
     43 H9           0.0420     4.6230     0.6580 hc         1 JJE       0.062367
     44 H10          0.6140    -2.3290     1.4820 ha         1 JJE       0.147000
     45 H11         -7.5680    -0.4820    -0.4280 h1         1 JJE       0.061700
     46 H12         -6.6070     0.4610    -1.5420 h1         1 JJE       0.061700
     47 H13         -5.8960    -1.6230    -2.7360 hc         1 JJE       0.051033
     48 H14         -6.8290    -2.6030    -1.5990 hc         1 JJE       0.051033
     49 H15         -7.6540    -1.4940    -2.6930 hc         1 JJE       0.051033
     50 H16         -7.3900    -1.0360     1.8530 h1         1 JJE       0.035700
     51 H17         -7.1200    -2.5700     1.0380 h1         1 JJE       0.035700
     52 H18         -7.0300    -2.7260     3.3750 ho         1 JJE       0.453000
     53 CL           4.1610    -0.2180    -2.2010 cl         1 JJE      -0.180000
@<TRIPOS>BOND
     1     1     2 1   
     2     1    18 1   
     3     1    19 1   
     4     1    20 1   
     5     2    16 1   
     6     2    17 1   
     7     2    35 1   
     8     3    15 ar  
     9     3    24 ar  
    10     3    36 1   
    11     4    13 1   
    12     4    15 ar  
    13     4    21 ar  
    14     5     6 ar  
    15     5     9 ar  
    16     5    37 1   
    17     6     7 ar  
    18     6    38 1   
    19     7     8 ar  
    20     7    39 1   
    21     8    11 ar  
    22     8    53 1   
    23     9    10 1   
    24     9    11 ar  
    25    11    12 1   
    26    12    13 1   
    27    12    40 1   
    28    13    14 2   
    29    15    16 1   
    30    17    41 1   
    31    17    42 1   
    32    17    43 1   
    33    21    22 ar  
    34    21    44 1   
    35    22    23 1   
    36    22    24 ar  
    37    24    25 1   
    38    25    26 1   
    39    25    27 1   
    40    26    32 2   
    41    27    28 2   
    42    27    29 1   
    43    29    30 1   
    44    29    32 1   
    45    30    31 1   
    46    30    45 1   
    47    30    46 1   
    48    31    47 1   
    49    31    48 1   
    50    31    49 1   
    51    32    33 1   
    52    33    34 1   
    53    33    50 1   
    54    33    51 1   
    55    34    52 1   
@<TRIPOS>SUBSTRUCTURE
     1 JJE         1 TEMP              0 ****  ****    0 ROOT
