@<TRIPOS>MOLECULE
JJF
   31    33     1     0     0
SMALL
No Charge or Current Charge


@<TRIPOS>ATOM
      1 N3          91.4180    -9.6650    14.3430 nb         1 JJF      -0.629000
      2 C4          92.4190    -9.0540    13.6490 ca         1 JJF       0.302300
      3 C6          91.6140    -7.8300    15.9410 ca         1 JJF       0.283000
      4 C7          91.0170    -9.0570    15.4900 ca         1 JJF       0.182000
      5 C8          94.3470    -5.6700    13.6830 c5         1 JJF       0.225300
      6 C10         92.7940    -9.7510    12.3450 c3         1 JJF      -0.142400
      7 C13         95.4870    -5.4060    12.6680 c5         1 JJF      -0.096900
      8 C15         89.5420    -9.0360    17.4440 ca         1 JJF      -0.128000
      9 C1          93.0300    -7.8260    14.1110 ca         1 JJF       0.589900
     10 N2          92.6130    -7.2210    15.2500 nb         1 JJF      -0.749000
     11 N5          94.0820    -7.1200    13.4650 nh         1 JJF      -0.791300
     12 C9          95.1890    -7.7790    12.7220 c5         1 JJF       0.225300
     13 C11         91.1520    -7.2440    17.1350 ca         1 JJF      -0.099000
     14 C12         89.9870    -9.6380    16.2560 ca         1 JJF      -0.056000
     15 C14         96.3080    -6.7110    12.8040 c5         1 JJF      -0.096900
     16 C16         90.1240    -7.8390    17.8840 ca         1 JJF      -0.091000
     17 H2          94.6840    -5.4760    14.7110 h1         1 JJF       0.052200
     18 H3          92.0600   -10.5170    12.0660 hc         1 JJF       0.053033
     19 H4          92.8390    -9.0350    11.5170 hc         1 JJF       0.053033
     20 H5          93.7670   -10.2470    12.4290 hc         1 JJF       0.053033
     21 H6          95.0960    -5.2800    11.6510 hc         1 JJF       0.054700
     22 H7          96.0650    -4.5090    12.9150 hc         1 JJF       0.054700
     23 H8          88.7450    -9.4990    18.0230 ha         1 JJF       0.116000
     24 H9          95.5060    -8.7250    13.1830 h1         1 JJF       0.052200
     25 H10         94.9090    -7.9720    11.6770 h1         1 JJF       0.052200
     26 H11         91.5990    -6.3160    17.4810 ha         1 JJF       0.128000
     27 H12         89.5300   -10.5650    15.9210 ha         1 JJF       0.127000
     28 H13         96.8320    -6.7570    13.7660 hc         1 JJF       0.054700
     29 H14         97.0570    -6.8300    12.0130 hc         1 JJF       0.054700
     30 H15         89.7800    -7.3710    18.8040 ha         1 JJF       0.114000
     31 H1          93.4680    -5.0440    13.4760 h1         1 JJF       0.052200
@<TRIPOS>BOND
     1     1     2 ar  
     2     1     4 ar  
     3     2     6 1   
     4     2     9 ar  
     5     3     4 ar  
     6     3    10 ar  
     7     3    13 ar  
     8     4    14 ar  
     9     5     7 1   
    10     5    11 1   
    11     5    17 1   
    12     5    31 1   
    13     6    18 1   
    14     6    19 1   
    15     6    20 1   
    16     7    15 1   
    17     7    21 1   
    18     7    22 1   
    19     8    14 ar  
    20     8    16 ar  
    21     8    23 1   
    22     9    10 ar  
    23     9    11 1   
    24    11    12 1   
    25    12    15 1   
    26    12    24 1   
    27    12    25 1   
    28    13    16 ar  
    29    13    26 1   
    30    14    27 1   
    31    15    28 1   
    32    15    29 1   
    33    16    30 1   
@<TRIPOS>SUBSTRUCTURE
     1 JJF         1 TEMP              0 ****  ****    0 ROOT
