@<TRIPOS>MOLECULE
JJF
   31    33     1     0     0
SMALL
abcg2


@<TRIPOS>ATOM
      1 N3          91.5760    -9.6430    14.3990 nb         1 JJF      -0.629000
      2 C4          92.4860    -9.0590    13.6840 ca         1 JJF       0.302300
      3 C6          91.5740    -7.7610    15.8760 ca         1 JJF       0.283000
      4 C7          91.1080    -9.0420    15.5250 ca         1 JJF       0.182000
      5 C8          94.3780    -5.7740    13.7920 c5         1 JJF       0.225300
      6 C10         92.8400    -9.7160    12.3840 c3         1 JJF      -0.142400
      7 C13         95.5010    -5.4360    12.8260 c5         1 JJF      -0.096900
      8 C15         89.6210    -9.0430    17.4160 ca         1 JJF      -0.128000
      9 C1          93.0350    -7.7740    14.1060 ca         1 JJF       0.589900
     10 N2          92.5370    -7.1540    15.1490 nb         1 JJF      -0.749000
     11 N5          94.0160    -7.1380    13.4190 nh         1 JJF      -0.791300
     12 C9          95.0880    -7.7830    12.6560 c5         1 JJF       0.225300
     13 C11         91.0340    -7.1240    17.0120 ca         1 JJF      -0.099000
     14 C12         90.1270    -9.6760    16.3080 ca         1 JJF      -0.056000
     15 C14         96.2280    -6.7690    12.7000 c5         1 JJF      -0.096900
     16 C16         90.0790    -7.7590    17.7660 ca         1 JJF      -0.091000
     17 H2          94.7280    -5.7240    14.8290 h1         1 JJF       0.052200
     18 H3          92.1400   -10.5280    12.2020 hc         1 JJF       0.053033
     19 H4          92.7720    -9.0120    11.5540 hc         1 JJF       0.053033
     20 H5          93.8460   -10.1340    12.3780 hc         1 JJF       0.053033
     21 H6          95.0960    -5.1280    11.8590 hc         1 JJF       0.054700
     22 H7          96.1340    -4.6320    13.1970 hc         1 JJF       0.054700
     23 H8          88.8670    -9.5270    18.0220 ha         1 JJF       0.116000
     24 H9          95.3790    -8.7340    13.1010 h1         1 JJF       0.052200
     25 H10         94.7860    -7.9700    11.6230 h1         1 JJF       0.052200
     26 H11         91.3940    -6.1380    17.2770 ha         1 JJF       0.128000
     27 H12         89.7820   -10.6600    16.0170 ha         1 JJF       0.127000
     28 H13         96.8530    -6.9390    13.5790 hc         1 JJF       0.054700
     29 H14         96.8650    -6.8380    11.8190 hc         1 JJF       0.054700
     30 H15         89.6720    -7.2680    18.6410 ha         1 JJF       0.114000
     31 H1          93.5170    -5.1090    13.7090 h1         1 JJF       0.052200
@<TRIPOS>BOND
     1     1     2 ar  
     2     1     4 ar  
     3     2     6 1   
     4     2     9 ar  
     5     3     4 ar  
     6     3    10 ar  
     7     3    13 ar  
     8     4    14 ar  
     9     5     7 1   
    10     5    11 1   
    11     5    17 1   
    12     5    31 1   
    13     6    18 1   
    14     6    19 1   
    15     6    20 1   
    16     7    15 1   
    17     7    21 1   
    18     7    22 1   
    19     8    14 ar  
    20     8    16 ar  
    21     8    23 1   
    22     9    10 ar  
    23     9    11 1   
    24    11    12 1   
    25    12    15 1   
    26    12    24 1   
    27    12    25 1   
    28    13    16 ar  
    29    13    26 1   
    30    14    27 1   
    31    15    28 1   
    32    15    29 1   
    33    16    30 1   
@<TRIPOS>SUBSTRUCTURE
     1 JJF         1 TEMP              0 ****  ****    0 ROOT
