@<TRIPOS>MOLECULE
JJG
   32    33     1     0     0
SMALL
abcg2


@<TRIPOS>ATOM
      1 C15         -3.6580     1.0610    -0.4670 c6         1 JJG       0.126300
      2 C01          5.1300    -1.1950    -0.2390 ca         1 JJG      -0.116000
      3 C02          5.1760     0.1360     0.1610 ca         1 JJG      -0.096500
      4 C03          4.0120     0.8770     0.2710 ca         1 JJG      -0.111000
      5 C04          2.7760     0.2960    -0.0250 ca         1 JJG      -0.084000
      6 C05          2.7290    -1.0360    -0.4280 ca         1 JJG      -0.111000
      7 C06          3.9040    -1.7720    -0.5300 ca         1 JJG      -0.096500
      8 S07          1.3620     1.3330     0.1320 ss         1 JJG      -0.183000
      9 C08         -0.0370     0.2170    -0.1510 c3         1 JJG       0.046600
     10 C09         -1.3160     1.0240     0.0420 c3         1 JJG       0.176800
     11 N10         -2.4960     0.2250    -0.2190 n3         1 JJG      -0.717600
     12 C11         -2.7880    -0.7130     0.8520 c6         1 JJG       0.126300
     13 C12         -4.0220    -1.5280     0.5150 c6         1 JJG       0.153100
     14 O13         -5.1410    -0.7070     0.2610 os         1 JJG      -0.448000
     15 C14         -4.8650     0.2010    -0.7820 c6         1 JJG       0.153100
     16 H151        -3.8840     1.7140     0.3940 h1         1 JJG       0.041950
     17 H152        -3.4580     1.7140    -1.3200 h1         1 JJG       0.041950
     18 H021         6.1250     0.6020     0.3930 ha         1 JJG       0.113000
     19 H031         4.0640     1.9120     0.5890 ha         1 JJG       0.118000
     20 H051         1.7890    -1.5130    -0.6690 ha         1 JJG       0.118000
     21 H061         3.8510    -2.8070    -0.8440 ha         1 JJG       0.113000
     22 H081        -0.0050    -0.1810    -1.1660 h1         1 JJG       0.070700
     23 H082         0.0270    -0.6140     0.5520 h1         1 JJG       0.070700
     24 H091        -1.3330     1.4640     1.0520 h1         1 JJG       0.046200
     25 H092        -1.3110     1.8570    -0.6650 h1         1 JJG       0.046200
     26 H112        -1.9550    -1.4060     0.9870 h1         1 JJG       0.041950
     27 H111        -2.9360    -0.1930     1.8140 h1         1 JJG       0.041950
     28 H121        -3.8110    -2.1660    -0.3550 h1         1 JJG       0.051200
     29 H122        -4.2770    -2.1790     1.3520 h1         1 JJG       0.051200
     30 H142        -5.7480     0.8290    -0.9120 h1         1 JJG       0.051200
     31 H141        -4.6920    -0.3380    -1.7250 h1         1 JJG       0.051200
     32 H011         6.0410    -1.7730    -0.3240 ha         1 JJG       0.115000
@<TRIPOS>BOND
     1     1    11 1   
     2     1    15 1   
     3     1    16 1   
     4     1    17 1   
     5     2     3 ar  
     6     2     7 ar  
     7     2    32 1   
     8     3     4 ar  
     9     3    18 1   
    10     4     5 ar  
    11     4    19 1   
    12     5     6 ar  
    13     5     8 1   
    14     6     7 ar  
    15     6    20 1   
    16     7    21 1   
    17     8     9 1   
    18     9    10 1   
    19     9    22 1   
    20     9    23 1   
    21    10    11 1   
    22    10    24 1   
    23    10    25 1   
    24    11    12 1   
    25    12    13 1   
    26    12    26 1   
    27    12    27 1   
    28    13    14 1   
    29    13    28 1   
    30    13    29 1   
    31    14    15 1   
    32    15    30 1   
    33    15    31 1   
@<TRIPOS>SUBSTRUCTURE
     1 JJG         1 TEMP              0 ****  ****    0 ROOT
