@<TRIPOS>MOLECULE
JJG
   32    33     1     0     0
SMALL
No Charge or Current Charge


@<TRIPOS>ATOM
      1 C15         -3.7820     1.1270    -0.4030 c6         1 JJG       0.126300
      2 C01          5.2410    -1.2270    -0.1610 ca         1 JJG      -0.116000
      3 C02          5.3270     0.1530     0.0820 ca         1 JJG      -0.096500
      4 C03          4.1560     0.9290     0.1490 ca         1 JJG      -0.111000
      5 C04          2.8930     0.3330    -0.0250 ca         1 JJG      -0.084000
      6 C05          2.8130    -1.0550    -0.2700 ca         1 JJG      -0.111000
      7 C06          3.9850    -1.8300    -0.3370 ca         1 JJG      -0.096500
      8 S07          1.4420     1.3890     0.0740 ss         1 JJG      -0.183000
      9 C08         -0.0140     0.2660    -0.1260 c3         1 JJG       0.046600
     10 C09         -1.3320     1.0650    -0.0390 c3         1 JJG       0.176800
     11 N10         -2.5620     0.2670    -0.2880 n3         1 JJG      -0.717600
     12 C11         -2.7890    -0.8320     0.7060 c6         1 JJG       0.126300
     13 C12         -4.0920    -1.6310     0.4000 c6         1 JJG       0.153100
     14 O13         -5.2270    -0.7360     0.3230 os         1 JJG      -0.448000
     15 C14         -5.0620     0.2850    -0.6900 c6         1 JJG       0.153100
     16 H151        -3.9380     1.6950     0.5260 h1         1 JJG       0.041950
     17 H152        -3.6570     1.8620    -1.2120 h1         1 JJG       0.041950
     18 H021         6.2990     0.6230     0.2190 ha         1 JJG       0.113000
     19 H031         4.2300     1.9970     0.3380 ha         1 JJG       0.118000
     20 H051         1.8570    -1.5500    -0.4120 ha         1 JJG       0.118000
     21 H061         3.9180    -2.8990    -0.5260 ha         1 JJG       0.113000
     22 H081         0.0450    -0.2290    -1.1030 h1         1 JJG       0.070700
     23 H082         0.0160    -0.4940     0.6640 h1         1 JJG       0.070700
     24 H091        -1.3880     1.5390     0.9510 h1         1 JJG       0.046200
     25 H092        -1.2730     1.8760    -0.7770 h1         1 JJG       0.046200
     26 H112        -1.9480    -1.5400     0.7050 h1         1 JJG       0.041950
     27 H111        -2.8620    -0.4180     1.7230 h1         1 JJG       0.041950
     28 H121        -3.9870    -2.1670    -0.5540 h1         1 JJG       0.051200
     29 H122        -4.2710    -2.3730     1.1910 h1         1 JJG       0.051200
     30 H142        -5.9460     0.9370    -0.6920 h1         1 JJG       0.051200
     31 H141        -4.9840    -0.1910    -1.6780 h1         1 JJG       0.051200
     32 H011         6.1460    -1.8290    -0.2130 ha         1 JJG       0.115000
@<TRIPOS>BOND
     1     1    11 1   
     2     1    15 1   
     3     1    16 1   
     4     1    17 1   
     5     2     3 ar  
     6     2     7 ar  
     7     2    32 1   
     8     3     4 ar  
     9     3    18 1   
    10     4     5 ar  
    11     4    19 1   
    12     5     6 ar  
    13     5     8 1   
    14     6     7 ar  
    15     6    20 1   
    16     7    21 1   
    17     8     9 1   
    18     9    10 1   
    19     9    22 1   
    20     9    23 1   
    21    10    11 1   
    22    10    24 1   
    23    10    25 1   
    24    11    12 1   
    25    12    13 1   
    26    12    26 1   
    27    12    27 1   
    28    13    14 1   
    29    13    28 1   
    30    13    29 1   
    31    14    15 1   
    32    15    30 1   
    33    15    31 1   
@<TRIPOS>SUBSTRUCTURE
     1 JJG         1 TEMP              0 ****  ****    0 ROOT
