@<TRIPOS>MOLECULE
JJH
   70    75     1     0     0
SMALL
abcg2


@<TRIPOS>ATOM
      1 CAT         -5.8140    -0.2860    -0.0180 ca         1 JJH       0.338000
      2 CAN         -6.2710    -2.4620    -1.0430 cx         1 JJH       0.166500
      3 CAQ          0.6720    -0.3820    -0.2030 c6         1 JJH       0.187000
      4 CBC         -4.0230     1.6080     0.8760 ca         1 JJH       0.078000
      5 CAR         -0.2830    -0.2910    -1.3890 c6         1 JJH      -0.087400
      6 CAO         -7.0050    -3.0320    -2.2120 cx         1 JJH      -0.137900
      7 CAU         -1.7210    -0.5910    -0.9960 c6         1 JJH       0.203300
      8 CAW         -3.5120     0.4460     0.2640 ca         1 JJH       0.273000
      9 OAJ          9.0450     1.1130     2.1290 o          1 JJH      -0.512000
     10 CAY          2.0550     0.0670    -0.6590 c3         1 JJH       0.130600
     11 CBA         -6.2920     0.8700     0.6070 ca         1 JJH      -0.209600
     12 CAV         -1.3080     0.1900     1.2540 c6         1 JJH       0.203300
     13 OAI         12.5180    -0.2460    -0.7890 oh         1 JJH      -0.640000
     14 CBB         -8.5990     0.0860     0.3030 cc         1 JJH      -0.291400
     15 CAX         -8.0410    -1.0230    -0.2590 cd         1 JJH       0.015000
     16 CAZ         -4.4360    -0.4930    -0.1660 ca         1 JJH      -0.219000
     17 CAP         -5.6390    -2.4540    -2.4000 cx         1 JJH      -0.137900
     18 CAS          0.1390     0.5090     0.9250 c6         1 JJH      -0.087400
     19 NAK         -6.7240    -1.2260    -0.4610 na         1 JJH      -0.632200
     20 NAL         -2.1440     0.3110     0.0600 nh         1 JJH      -0.786400
     21 NAM          8.4090     0.7920    -0.0730 n          1 JJH      -0.255400
     22 OAD          2.9430    -0.0870     0.4330 os         1 JJH      -0.335100
     23 OAH         10.4970     1.2660     0.4500 os         1 JJH      -0.392100
     24 CBD         -7.7290     1.1320     0.7960 c          1 JJH       0.592900
     25 CBE         -5.3570     1.8150     1.0550 ca         1 JJH      -0.054000
     26 CBF        -10.1180     0.1430     0.3560 c          1 JJH       0.726200
     27 CBG          4.2500     0.1540     0.2340 ca         1 JJH       0.096100
     28 CBH          5.1140    -0.1330     1.2910 ca         1 JJH       0.163000
     29 CBI          4.8190     0.6570    -0.9260 ca         1 JJH      -0.153000
     30 CBJ          7.0300     0.5890     0.0570 ca         1 JJH      -0.019000
     31 CBK          9.0440     1.0090    -1.3570 c5         1 JJH       0.065000
     32 CBL         10.5190     1.0180    -0.9610 c5         1 JJH       0.154300
     33 CBM          6.4710     0.0630     1.2260 ca         1 JJH      -0.136000
     34 CBN          6.1900     0.8740    -1.0120 ca         1 JJH      -0.140000
     35 CBO          9.2740     1.0560     0.9470 c          1 JJH       0.698100
     36 CBP         11.1970    -0.3010    -1.2560 c3         1 JJH       0.147600
     37 FAA         -3.1540     2.5560     1.2680 f          1 JJH      -0.193000
     38 FAB          4.5850    -0.6380     2.4150 f          1 JJH      -0.163000
     39 HAN         -5.8710    -3.1630    -0.3170 h1         1 JJH       0.081700
     40 HAS         -0.2350     0.7180    -1.8080 hc         1 JJH       0.055450
     41 HAT          0.0260    -0.9830    -2.1760 hc         1 JJH       0.055450
     42 HAO         -7.1330    -4.1050    -2.2370 hc         1 JJH       0.079200
     43 HAP         -7.8400    -2.4730    -2.6140 hc         1 JJH       0.079200
     44 HAX         -2.3610    -0.4370    -1.8670 h1         1 JJH       0.045700
     45 HAW         -1.8210    -1.6450    -0.7030 h1         1 JJH       0.045700
     46 HA2          2.3840    -0.5470    -1.5060 h1         1 JJH       0.044200
     47 HA1          2.0230     1.1110    -0.9900 h1         1 JJH       0.044200
     48 HAY         -1.3860    -0.8250     1.6670 h1         1 JJH       0.045700
     49 HAZ         -1.6580     0.8680     2.0290 h1         1 JJH       0.045700
     50 HAI         12.9570    -1.0650    -1.0320 ho         1 JJH       0.448000
     51 HA0         -8.6830    -1.8260    -0.5930 h4         1 JJH       0.224000
     52 HA3         -4.0790    -1.4080    -0.6140 ha         1 JJH       0.113000
     53 HAQ         -5.5690    -1.5030    -2.9130 hc         1 JJH       0.079200
     54 HAR         -4.8020    -3.1200    -2.5600 hc         1 JJH       0.079200
     55 HAU          0.7450     0.3950     1.8270 hc         1 JJH       0.055450
     56 HAV          0.2170     1.5570     0.6220 hc         1 JJH       0.055450
     57 HAC          1.2360    -1.8150     0.9920 ho         1 JJH       0.455000
     58 HBE         -5.7050     2.7290     1.5190 ha         1 JJH       0.150000
     59 HBI          4.2080     0.8970    -1.7850 ha         1 JJH       0.124000
     60 HBL          8.8080     0.2060    -2.0580 h1         1 JJH       0.065200
     61 HBK          8.7350     1.9570    -1.8030 h1         1 JJH       0.065200
     62 HBM         11.0620     1.8370    -1.4340 h1         1 JJH       0.095700
     63 HBN          7.0740    -0.2070     2.0800 ha         1 JJH       0.161000
     64 HBO          6.5810     1.2750    -1.9370 ha         1 JJH       0.113000
     65 HBP         11.1450    -0.4530    -2.3420 h1         1 JJH       0.030200
     66 HBQ         10.6250    -1.1170    -0.7930 h1         1 JJH       0.030200
     67 OAE         -8.0960     2.1630     1.3590 o          1 JJH      -0.542100
     68 OAC          0.7040    -1.7390     0.1920 oh         1 JJH      -0.658000
     69 OAF        -10.7160    -0.9410     0.1870 o          1 JJH      -0.712500
     70 OAG        -10.6460     1.2540     0.5340 o          1 JJH      -0.712500
@<TRIPOS>BOND
     1     1    11 ar  
     2     1    16 ar  
     3     1    19 1   
     4     2     6 1   
     5     2    17 1   
     6     2    19 1   
     7     2    39 1   
     8     3     5 1   
     9     3    10 1   
    10     3    18 1   
    11     3    68 1   
    12     4     8 ar  
    13     4    25 ar  
    14     4    37 1   
    15     5     7 1   
    16     5    40 1   
    17     5    41 1   
    18     6    17 1   
    19     6    42 1   
    20     6    43 1   
    21     7    20 1   
    22     7    44 1   
    23     7    45 1   
    24     8    16 ar  
    25     8    20 1   
    26     9    35 2   
    27    10    22 1   
    28    10    46 1   
    29    10    47 1   
    30    11    24 1   
    31    11    25 ar  
    32    12    18 1   
    33    12    20 1   
    34    12    48 1   
    35    12    49 1   
    36    13    36 1   
    37    13    50 1   
    38    14    15 2   
    39    14    24 1   
    40    14    26 1   
    41    15    19 1   
    42    15    51 1   
    43    16    52 1   
    44    17    53 1   
    45    17    54 1   
    46    18    55 1   
    47    18    56 1   
    48    21    30 1   
    49    21    31 1   
    50    21    35 1   
    51    22    27 1   
    52    23    32 1   
    53    23    35 1   
    54    24    67 2   
    55    25    58 1   
    56    26    69 1   
    57    26    70 1   
    58    27    28 ar  
    59    27    29 ar  
    60    28    33 ar  
    61    28    38 1   
    62    29    34 ar  
    63    29    59 1   
    64    30    33 ar  
    65    30    34 ar  
    66    31    32 1   
    67    31    60 1   
    68    31    61 1   
    69    32    36 1   
    70    32    62 1   
    71    33    63 1   
    72    34    64 1   
    73    36    65 1   
    74    36    66 1   
    75    57    68 1   
@<TRIPOS>SUBSTRUCTURE
     1 JJH         1 TEMP              0 ****  ****    0 ROOT
