@<TRIPOS>MOLECULE
JJH
   70    75     1     0     0
SMALL
No Charge or Current Charge


@<TRIPOS>ATOM
      1 CAT         -5.9540    -0.2360     0.0030 ca         1 JJH       0.338000
      2 CAN         -6.6700    -2.3650    -1.2250 cx         1 JJH       0.166500
      3 CAQ          0.6640    -0.6090    -0.3540 c6         1 JJH       0.187000
      4 CBC         -3.9520     1.6460     0.6470 ca         1 JJH       0.078000
      5 CAR         -0.3320    -0.5400    -1.5440 c6         1 JJH      -0.087400
      6 CAO         -7.5110    -2.7960    -2.4030 cx         1 JJH      -0.137900
      7 CAU         -1.7810    -0.8730    -1.1160 c6         1 JJH       0.203300
      8 CAW         -3.5780     0.3680     0.1700 ca         1 JJH       0.273000
      9 OAJ          8.9170     1.5640     2.1420 o          1 JJH      -0.512000
     10 CAY          2.0820    -0.1260    -0.8060 c3         1 JJH       0.130600
     11 CBA         -6.3050     1.0220     0.4940 ca         1 JJH      -0.209600
     12 CAV         -1.3260    -0.0750     1.1920 c6         1 JJH       0.203300
     13 OAI         12.8800     0.1610    -0.4170 oh         1 JJH      -0.640000
     14 CBB         -8.6290     0.1580     0.6540 cc         1 JJH      -0.291400
     15 CAX         -8.2180    -1.0730     0.1510 cd         1 JJH       0.015000
     16 CAZ         -4.5890    -0.5570    -0.1450 ca         1 JJH      -0.219000
     17 CAP         -6.0910    -2.3400    -2.6190 cx         1 JJH      -0.137900
     18 CAS          0.1320     0.2760     0.8110 c6         1 JJH      -0.087400
     19 NAK         -6.9230    -1.1700    -0.4010 na         1 JJH      -0.632200
     20 NAL         -2.2140     0.0090     0.0020 nh         1 JJH      -0.786400
     21 NAM          8.5200     0.9970    -0.1030 n          1 JJH      -0.255400
     22 OAD          3.0380    -0.3960     0.2400 os         1 JJH      -0.335100
     23 OAH         10.5370     1.7540     0.5410 os         1 JJH      -0.392100
     24 CBD         -7.7370     1.3280     0.7090 c          1 JJH       0.592900
     25 CBE         -5.3060     1.9690     0.8080 ca         1 JJH      -0.054000
     26 CBF        -10.0410     0.2730     1.1070 c          1 JJH       0.726200
     27 CBG          4.3780    -0.0700     0.1220 ca         1 JJH       0.096100
     28 CBH          5.2460    -0.3580     1.1940 ca         1 JJH       0.163000
     29 CBI          4.9020     0.5600    -1.0270 ca         1 JJH      -0.153000
     30 CBJ          7.1560     0.5260    -0.0540 ca         1 JJH      -0.019000
     31 CBK          9.2650     1.1010    -1.3640 c5         1 JJH       0.065000
     32 CBL         10.7110     1.2740    -0.8170 c5         1 JJH       0.154300
     33 CBM          6.6120    -0.0420     1.1180 ca         1 JJH      -0.136000
     34 CBN          6.2710     0.8730    -1.0980 ca         1 JJH      -0.140000
     35 CBO          9.2880     1.4370     0.9840 c          1 JJH       0.698100
     36 CBP         11.5100    -0.0600    -0.7940 c3         1 JJH       0.147600
     37 FAA         -3.0190     2.5840     0.9480 f          1 JJH      -0.193000
     38 FAB          4.7670    -0.9390     2.3190 f          1 JJH      -0.163000
     39 HAN         -6.3170    -3.1500    -0.5540 h1         1 JJH       0.081700
     40 HAS         -0.3150     0.4690    -1.9800 hc         1 JJH       0.055450
     41 HAT         -0.0190    -1.2260    -2.3420 hc         1 JJH       0.055450
     42 HAO         -7.7280    -3.8560    -2.5030 hc         1 JJH       0.079200
     43 HAP         -8.3080    -2.1320    -2.7270 hc         1 JJH       0.079200
     44 HAX         -2.4420    -0.7420    -1.9850 h1         1 JJH       0.045700
     45 HAW         -1.8420    -1.9290    -0.8110 h1         1 JJH       0.045700
     46 HA2          2.3630    -0.6570    -1.7260 h1         1 JJH       0.044200
     47 HA1          2.0410     0.9480    -1.0290 h1         1 JJH       0.044200
     48 HAY         -1.3610    -1.0910     1.6150 h1         1 JJH       0.045700
     49 HAZ         -1.6620     0.6140     1.9800 h1         1 JJH       0.045700
     50 HAI         13.3200    -0.7190    -0.3950 ho         1 JJH       0.448000
     51 HA0         -8.8740    -1.9400     0.0590 h4         1 JJH       0.224000
     52 HA3         -4.3040    -1.5390    -0.5020 ha         1 JJH       0.113000
     53 HAQ         -5.9330    -1.3700    -3.0820 hc         1 JJH       0.079200
     54 HAR         -5.3440    -3.0910    -2.8650 hc         1 JJH       0.079200
     55 HAU          0.7740     0.1740     1.6960 hc         1 JJH       0.055450
     56 HAV          0.1750     1.3340     0.5200 hc         1 JJH       0.055450
     57 HAC          1.6730    -2.0110     0.5270 ho         1 JJH       0.455000
     58 HBE         -5.5710     2.9530     1.1880 ha         1 JJH       0.150000
     59 HBI          4.2640     0.8260    -1.8650 ha         1 JJH       0.124000
     60 HBL          9.1500     0.2080    -1.9910 h1         1 JJH       0.065200
     61 HBK          8.9490     1.9820    -1.9380 h1         1 JJH       0.065200
     62 HBM         11.2770     2.0120    -1.4020 h1         1 JJH       0.095700
     63 HBN          7.2430    -0.2790     1.9690 ha         1 JJH       0.161000
     64 HBO          6.6400     1.3880    -1.9820 ha         1 JJH       0.113000
     65 HBP         11.4690    -0.5100    -1.7960 h1         1 JJH       0.030200
     66 HBQ         11.0270    -0.7590    -0.0980 h1         1 JJH       0.030200
     67 OAE         -8.0830     2.4790     0.9500 o          1 JJH      -0.542100
     68 OAC          0.7910    -1.9670     0.0950 oh         1 JJH      -0.658000
     69 OAF        -10.7620    -0.7090     1.0010 o          1 JJH      -0.712500
     70 OAG        -10.4610     1.3080     1.5970 o          1 JJH      -0.712500
@<TRIPOS>BOND
     1     1    11 ar  
     2     1    16 ar  
     3     1    19 1   
     4     2     6 1   
     5     2    17 1   
     6     2    19 1   
     7     2    39 1   
     8     3     5 1   
     9     3    10 1   
    10     3    18 1   
    11     3    68 1   
    12     4     8 ar  
    13     4    25 ar  
    14     4    37 1   
    15     5     7 1   
    16     5    40 1   
    17     5    41 1   
    18     6    17 1   
    19     6    42 1   
    20     6    43 1   
    21     7    20 1   
    22     7    44 1   
    23     7    45 1   
    24     8    16 ar  
    25     8    20 1   
    26     9    35 2   
    27    10    22 1   
    28    10    46 1   
    29    10    47 1   
    30    11    24 1   
    31    11    25 ar  
    32    12    18 1   
    33    12    20 1   
    34    12    48 1   
    35    12    49 1   
    36    13    36 1   
    37    13    50 1   
    38    14    15 2   
    39    14    24 1   
    40    14    26 1   
    41    15    19 1   
    42    15    51 1   
    43    16    52 1   
    44    17    53 1   
    45    17    54 1   
    46    18    55 1   
    47    18    56 1   
    48    21    30 1   
    49    21    31 1   
    50    21    35 1   
    51    22    27 1   
    52    23    32 1   
    53    23    35 1   
    54    24    67 2   
    55    25    58 1   
    56    26    69 1   
    57    26    70 1   
    58    27    28 ar  
    59    27    29 ar  
    60    28    33 ar  
    61    28    38 1   
    62    29    34 ar  
    63    29    59 1   
    64    30    33 ar  
    65    30    34 ar  
    66    31    32 1   
    67    31    60 1   
    68    31    61 1   
    69    32    36 1   
    70    32    62 1   
    71    33    63 1   
    72    34    64 1   
    73    36    65 1   
    74    36    66 1   
    75    57    68 1   
@<TRIPOS>SUBSTRUCTURE
     1 JJH         1 TEMP              0 ****  ****    0 ROOT
