@<TRIPOS>MOLECULE
JJI
   64    68     1     0     0
SMALL
abcg2


@<TRIPOS>ATOM
      1 C01        119.4070   121.6120   138.3070 c3         1 JJI       0.106400
      2 C02        118.5050   120.9250   137.3220 cc         1 JJI       0.370700
      3 C03        117.3510   119.2670   136.4600 cd         1 JJI       0.198500
      4 C04        116.9420   120.2460   135.6080 cc         1 JJI      -0.218000
      5 C05        116.8490   117.8690   136.4580 c          1 JJI       0.528600
      6 C06        116.9000   115.8190   137.8340 c3         1 JJI       0.092900
      7 C07        116.9800   115.7730   139.3370 cc         1 JJI       0.394700
      8 C08        117.7750   116.1820   141.3420 cd         1 JJI       0.239500
      9 C09        116.6680   115.4850   141.7160 cc         1 JJI      -0.251000
     10 C10        118.8500   116.6700   142.2560 c          1 JJI       0.544600
     11 C11        117.2890   118.2620   143.4070 c3         1 JJI       0.092900
     12 C12        117.6710   119.6890   143.0920 cc         1 JJI       0.380700
     13 C13        118.4010   121.3960   141.9160 cd         1 JJI       0.214500
     14 C14        118.2190   122.0490   143.0960 cc         1 JJI      -0.200000
     15 C15        118.8910   122.0530   140.6760 c          1 JJI       0.539600
     16 C16        117.7120   114.6890   137.2040 c3         1 JJI      -0.107600
     17 C17        116.6120   118.0990   144.7570 c3         1 JJI      -0.107600
     18 C18        120.8740   121.2210   138.0930 c3         1 JJI       0.021600
     19 N01        118.9950   121.2150   139.6300 ns         1 JJI      -0.492900
     20 N02        118.2380   119.6660   137.4130 nd         1 JJI      -0.651000
     21 N03        117.3730   117.1270   137.4410 ns         1 JJI      -0.490900
     22 N04        117.9440   116.3250   139.9970 nd         1 JJI      -0.613000
     23 N05        118.4730   117.4260   143.3090 ns         1 JJI      -0.496900
     24 N06        118.0900   120.0690   141.9300 nd         1 JJI      -0.627000
     25 O01        116.0250   117.4800   135.6440 o          1 JJI      -0.600100
     26 O02        120.0030   116.3300   142.0640 o          1 JJI      -0.557100
     27 O03        119.1570   123.2430   140.6410 o          1 JJI      -0.596100
     28 S01        117.6890   121.7190   136.0330 ss         1 JJI       0.097600
     29 S02        115.7990   115.0030   140.3250 ss         1 JJI       0.028600
     30 S03        117.6360   120.9580   144.2650 ss         1 JJI       0.018600
     31 S04        121.4790   121.6600   136.4270 ss         1 JJI      -0.194000
     32 S          122.1070   119.8540   135.6810 ss         1 JJI       0.074000
     33 C1         120.7010   119.1710   134.8520 ca         1 JJI      -0.056000
     34 C2         119.9170   119.8010   133.8820 ca         1 JJI      -0.164200
     35 N2         120.1830   121.1640   133.4280 no         1 JJI       0.695200
     36 O21        119.2300   121.8410   133.1330 o          1 JJI      -0.373500
     37 O22        121.3320   121.5160   133.3490 o          1 JJI      -0.373500
     38 C3         118.8580   119.1550   133.2750 ca         1 JJI      -0.008000
     39 C4         118.6140   117.8330   133.5980 ca         1 JJI      -0.166200
     40 N4         117.5130   117.1420   132.9430 no         1 JJI       0.707200
     41 O41        117.4090   115.9550   133.1260 o          1 JJI      -0.381500
     42 O42        116.7730   117.7970   132.2500 o          1 JJI      -0.381500
     43 C5         119.3830   117.1640   134.5330 ca         1 JJI      -0.017000
     44 C6         120.4010   117.8500   135.1710 ca         1 JJI      -0.085000
     45 H5         119.3010   122.6950   138.2200 h1         1 JJI       0.101700
     46 H19        116.2490   120.1730   134.7840 h4         1 JJI       0.189000
     47 H6         115.8580   115.7200   137.5240 h1         1 JJI       0.084700
     48 H7         116.3360   115.2330   142.7120 h4         1 JJI       0.168000
     49 H8         116.5910   117.9560   142.6280 h1         1 JJI       0.089700
     50 H9         118.3910   123.0900   143.3200 h4         1 JJI       0.185000
     51 H10        117.6220   114.7290   136.1190 hc         1 JJI       0.052700
     52 H11        118.7650   114.7760   137.4720 hc         1 JJI       0.052700
     53 H12        117.3460   113.7190   137.5410 hc         1 JJI       0.052700
     54 H1         116.3100   117.0620   144.8910 hc         1 JJI       0.054033
     55 H2         117.2790   118.3620   145.5800 hc         1 JJI       0.054033
     56 H3         115.7180   118.7190   144.8210 hc         1 JJI       0.054033
     57 H13        121.4960   121.7430   138.8210 h1         1 JJI       0.097200
     58 H14        121.0020   120.1480   138.2350 h1         1 JJI       0.097200
     59 H15        118.7630   120.2420   139.7760 hn         1 JJI       0.358500
     60 H16        118.0560   117.5660   138.0460 hn         1 JJI       0.359500
     61 H17        119.2280   117.6750   143.9360 hn         1 JJI       0.314500
     62 H21        118.2520   119.6660   132.5400 ha         1 JJI       0.181000
     63 H22        119.1880   116.1340   134.7940 ha         1 JJI       0.164000
     64 H23        120.9720   117.3490   135.9400 ha         1 JJI       0.153000
@<TRIPOS>BOND
     1     1     2 1   
     2     1    18 1   
     3     1    19 1   
     4     1    45 1   
     5     2    20 2   
     6     2    28 1   
     7     3     4 2   
     8     3     5 1   
     9     3    20 1   
    10     4    28 1   
    11     4    46 1   
    12     5    21 1   
    13     5    25 2   
    14     6     7 1   
    15     6    16 1   
    16     6    21 1   
    17     6    47 1   
    18     7    22 2   
    19     7    29 1   
    20     8     9 2   
    21     8    10 1   
    22     8    22 1   
    23     9    29 1   
    24     9    48 1   
    25    10    23 1   
    26    10    26 2   
    27    11    12 1   
    28    11    17 1   
    29    11    23 1   
    30    11    49 1   
    31    12    24 2   
    32    12    30 1   
    33    13    14 2   
    34    13    15 1   
    35    13    24 1   
    36    14    30 1   
    37    14    50 1   
    38    15    19 1   
    39    15    27 2   
    40    16    51 1   
    41    16    52 1   
    42    16    53 1   
    43    17    54 1   
    44    17    55 1   
    45    17    56 1   
    46    18    31 1   
    47    18    57 1   
    48    18    58 1   
    49    19    59 1   
    50    21    60 1   
    51    23    61 1   
    52    31    32 1   
    53    32    33 1   
    54    33    34 ar  
    55    33    44 ar  
    56    34    35 1   
    57    34    38 ar  
    58    35    36 1   
    59    35    37 1   
    60    38    39 ar  
    61    38    62 1   
    62    39    40 1   
    63    39    43 ar  
    64    40    41 1   
    65    40    42 1   
    66    43    44 ar  
    67    43    63 1   
    68    44    64 1   
@<TRIPOS>SUBSTRUCTURE
     1 JJI         1 TEMP              0 ****  ****    0 ROOT
