@<TRIPOS>MOLECULE
JJI
   64    68     1     0     0
SMALL
No Charge or Current Charge


@<TRIPOS>ATOM
      1 C01        119.0930   121.7080   138.2320 c3         1 JJI       0.106400
      2 C02        118.2820   120.9050   137.2320 cc         1 JJI       0.370700
      3 C03        117.1860   119.1410   136.4030 cd         1 JJI       0.198500
      4 C04        116.8130   120.1020   135.4860 cc         1 JJI      -0.218000
      5 C05        116.6510   117.7360   136.3320 c          1 JJI       0.528600
      6 C06        116.6790   115.6710   137.8150 c3         1 JJI       0.092900
      7 C07        116.7440   115.6210   139.3300 cc         1 JJI       0.394700
      8 C08        117.6030   116.0940   141.3510 cd         1 JJI       0.239500
      9 C09        116.2620   115.9470   141.6700 cc         1 JJI      -0.251000
     10 C10        118.6610   116.4170   142.3960 c          1 JJI       0.544600
     11 C11        117.3000   118.1780   143.6300 c3         1 JJI       0.092900
     12 C12        117.9370   119.5200   143.2920 cc         1 JJI       0.380700
     13 C13        118.7490   121.1710   142.0090 cd         1 JJI       0.214500
     14 C14        119.0260   121.6820   143.2600 cc         1 JJI      -0.200000
     15 C15        119.1300   121.9430   140.7690 c          1 JJI       0.539600
     16 C16        117.4530   114.5260   137.1290 c3         1 JJI      -0.107600
     17 C17        116.5640   118.1440   144.9870 c3         1 JJI      -0.107600
     18 C18        120.6080   121.6110   137.9440 c3         1 JJI       0.021600
     19 N01        118.8040   121.2700   139.6120 ns         1 JJI      -0.492900
     20 N02        118.0410   119.6120   137.4030 nd         1 JJI      -0.651000
     21 N03        117.1640   116.9770   137.3560 ns         1 JJI      -0.490900
     22 N04        117.8680   115.8560   139.9980 nd         1 JJI      -0.613000
     23 N05        118.2750   117.0650   143.5610 ns         1 JJI      -0.496900
     24 N06        118.1190   119.9200   142.0380 nd         1 JJI      -0.627000
     25 O01        115.8430   117.3070   135.5170 o          1 JJI      -0.600100
     26 O02        119.8480   116.1510   142.2520 o          1 JJI      -0.557100
     27 O03        119.6750   123.0410   140.7540 o          1 JJI      -0.596100
     28 S01        117.5180   121.6530   135.8530 ss         1 JJI       0.097600
     29 S02        115.2860   115.5760   140.2780 ss         1 JJI       0.028600
     30 S03        118.5240   120.6020   144.5300 ss         1 JJI       0.018600
     31 S04        121.0270   122.2810   136.2740 ss         1 JJI      -0.194000
     32 S          122.1350   120.7330   135.3990 ss         1 JJI       0.074000
     33 C1         120.9140   119.6180   134.7020 ca         1 JJI      -0.056000
     34 C2         120.0670   119.9930   133.6280 ca         1 JJI      -0.164200
     35 N2         120.1570   121.3360   132.9840 no         1 JJI       0.695200
     36 O21        119.0950   121.8960   132.6850 o          1 JJI      -0.373500
     37 O22        121.2680   121.7240   132.6020 o          1 JJI      -0.373500
     38 C3         119.1150   119.0720   133.1370 ca         1 JJI      -0.008000
     39 C4         119.0090   117.7760   133.6930 ca         1 JJI      -0.166200
     40 N4         118.0260   116.7910   133.1400 no         1 JJI       0.707200
     41 O41        118.0880   115.6210   133.5380 o          1 JJI      -0.381500
     42 O42        117.2510   117.1740   132.2540 o          1 JJI      -0.381500
     43 C5         119.8550   117.4180   134.7660 ca         1 JJI      -0.017000
     44 C6         120.7940   118.3360   135.2640 ca         1 JJI      -0.085000
     45 H5         118.7930   122.7610   138.1430 h1         1 JJI       0.101700
     46 H19        116.1560   119.9990   134.6330 h4         1 JJI       0.189000
     47 H6         115.6230   115.5800   137.5270 h1         1 JJI       0.084700
     48 H7         115.7860   116.0060   142.6390 h4         1 JJI       0.168000
     49 H8         116.5300   118.0460   142.8640 h1         1 JJI       0.089700
     50 H9         119.5050   122.6200   143.5110 h4         1 JJI       0.185000
     51 H10        117.3280   114.5750   136.0410 hc         1 JJI       0.052700
     52 H11        118.5240   114.5870   137.3570 hc         1 JJI       0.052700
     53 H12        117.0820   113.5530   137.4710 hc         1 JJI       0.052700
     54 H1         116.0330   117.1920   145.1090 hc         1 JJI       0.054033
     55 H2         117.2660   118.2500   145.8230 hc         1 JJI       0.054033
     56 H3         115.8260   118.9530   145.0470 hc         1 JJI       0.054033
     57 H13        121.1740   122.1750   138.6960 h1         1 JJI       0.097200
     58 H14        120.9210   120.5600   138.0000 h1         1 JJI       0.097200
     59 H15        118.3560   120.3660   139.7420 hn         1 JJI       0.358500
     60 H16        117.8270   117.4710   137.9490 hn         1 JJI       0.359500
     61 H17        119.0010   117.0810   144.2680 hn         1 JJI       0.314500
     62 H21        118.4730   119.3630   132.3050 ha         1 JJI       0.181000
     63 H22        119.7920   116.4300   135.2210 ha         1 JJI       0.164000
     64 H23        121.4360   118.0450   136.0930 ha         1 JJI       0.153000
@<TRIPOS>BOND
     1     1     2 1   
     2     1    18 1   
     3     1    19 1   
     4     1    45 1   
     5     2    20 2   
     6     2    28 1   
     7     3     4 2   
     8     3     5 1   
     9     3    20 1   
    10     4    28 1   
    11     4    46 1   
    12     5    21 1   
    13     5    25 2   
    14     6     7 1   
    15     6    16 1   
    16     6    21 1   
    17     6    47 1   
    18     7    22 2   
    19     7    29 1   
    20     8     9 2   
    21     8    10 1   
    22     8    22 1   
    23     9    29 1   
    24     9    48 1   
    25    10    23 1   
    26    10    26 2   
    27    11    12 1   
    28    11    17 1   
    29    11    23 1   
    30    11    49 1   
    31    12    24 2   
    32    12    30 1   
    33    13    14 2   
    34    13    15 1   
    35    13    24 1   
    36    14    30 1   
    37    14    50 1   
    38    15    19 1   
    39    15    27 2   
    40    16    51 1   
    41    16    52 1   
    42    16    53 1   
    43    17    54 1   
    44    17    55 1   
    45    17    56 1   
    46    18    31 1   
    47    18    57 1   
    48    18    58 1   
    49    19    59 1   
    50    21    60 1   
    51    23    61 1   
    52    31    32 1   
    53    32    33 1   
    54    33    34 ar  
    55    33    44 ar  
    56    34    35 1   
    57    34    38 ar  
    58    35    36 1   
    59    35    37 1   
    60    38    39 ar  
    61    38    62 1   
    62    39    40 1   
    63    39    43 ar  
    64    40    41 1   
    65    40    42 1   
    66    43    44 ar  
    67    43    63 1   
    68    44    64 1   
@<TRIPOS>SUBSTRUCTURE
     1 JJI         1 TEMP              0 ****  ****    0 ROOT
