@<TRIPOS>MOLECULE
JJJ
   24    24     1     0     0
SMALL
No Charge or Current Charge


@<TRIPOS>ATOM
      1 C          -51.6710    24.5570   -10.8310 c          1 JJJ       0.727000
      2 N          -54.2630    24.0990   -10.7900 n8         1 JJJ      -1.004200
      3 O          -51.1510    25.3530   -11.6050 o          1 JJJ      -0.721000
      4 N1         -58.0430    20.7710   -14.9950 nb         1 JJJ      -0.684000
      5 C2         -56.9260    21.3920   -14.5410 ca         1 JJJ       0.377900
      6 C3         -56.7690    22.7930   -14.5350 ca         1 JJJ      -0.198600
      7 C4         -57.8310    23.5830   -15.0260 ca         1 JJJ      -0.031000
      8 C5         -58.9850    22.9390   -15.4960 ca         1 JJJ      -0.185000
      9 C6         -59.0510    21.5390   -15.4640 ca         1 JJJ       0.340900
     10 C7         -55.5130    23.4420   -14.0210 c          1 JJJ       0.622300
     11 O7         -55.3820    24.6570   -14.0230 o          1 JJJ      -0.499100
     12 CA         -52.9050    23.6900   -11.3210 c3         1 JJJ       0.016500
     13 CB         -52.8920    23.5440   -12.8720 c3         1 JJJ       0.136600
     14 SG         -54.1730    22.3280   -13.4720 ss         1 JJJ      -0.443600
     15 OXT        -51.2690    24.3840    -9.6870 o          1 JJJ      -0.721000
     16 HN         -54.9540    23.3960   -11.0770 hn         1 JJJ       0.391000
     17 HNA        -54.2550    24.0330    -9.7640 hn         1 JJJ       0.391000
     18 H4         -57.7660    24.6700   -15.0450 ha         1 JJJ       0.138000
     19 H5         -59.8230    23.5140   -15.8820 ha         1 JJJ       0.117000
     20 H6         -59.9350    21.0140   -15.8220 h4         1 JJJ       0.008100
     21 HA         -52.7290    22.6830   -10.9200 h1         1 JJJ       0.008700
     22 HB         -53.0230    24.5220   -13.3510 h1         1 JJJ       0.087200
     23 HBA        -51.9060    23.1670   -13.1720 h1         1 JJJ       0.087200
     24 H2         -56.1500    20.7220   -14.1750 h4         1 JJJ       0.040100
@<TRIPOS>BOND
     1     1     3 1   
     2     1    12 1   
     3     1    15 1   
     4     2    12 1   
     5     2    16 1   
     6     2    17 1   
     7     4     5 ar  
     8     4     9 ar  
     9     5     6 ar  
    10     5    24 1   
    11     6     7 ar  
    12     6    10 1   
    13     7     8 ar  
    14     7    18 1   
    15     8     9 ar  
    16     8    19 1   
    17     9    20 1   
    18    10    11 2   
    19    10    14 1   
    20    12    13 1   
    21    12    21 1   
    22    13    14 1   
    23    13    22 1   
    24    13    23 1   
@<TRIPOS>SUBSTRUCTURE
     1 JJJ         1 TEMP              0 ****  ****    0 ROOT
