@<TRIPOS>MOLECULE
JJJ
   24    24     1     0     0
SMALL
abcg2


@<TRIPOS>ATOM
      1 C          -51.7420    24.4690   -10.8550 c          1 JJJ       0.727000
      2 N          -54.2080    24.1990   -10.8320 n8         1 JJJ      -1.004200
      3 O          -50.6980    24.3250   -11.5180 o          1 JJJ      -0.721000
      4 N1         -57.8520    20.8280   -15.3940 nb         1 JJJ      -0.684000
      5 C2         -56.7710    21.4310   -14.9210 ca         1 JJJ       0.377900
      6 C3         -56.7290    22.7820   -14.5850 ca         1 JJJ      -0.198600
      7 C4         -57.8850    23.5360   -14.7760 ca         1 JJJ      -0.031000
      8 C5         -59.0180    22.9100   -15.2620 ca         1 JJJ      -0.185000
      9 C6         -58.9520    21.5550   -15.5520 ca         1 JJJ       0.340900
     10 C7         -55.5110    23.4580   -14.0610 c          1 JJJ       0.622300
     11 O7         -55.3800    24.6560   -14.1050 o          1 JJJ      -0.499100
     12 CA         -52.9660    23.6160   -11.3020 c3         1 JJJ       0.016500
     13 CB         -52.9820    23.4610   -12.8180 c3         1 JJJ       0.136600
     14 SG         -54.3180    22.3570   -13.3690 ss         1 JJJ      -0.443600
     15 OXT        -51.9040    25.1810    -9.8470 o          1 JJJ      -0.721000
     16 HN         -54.9070    23.4810   -10.6990 hn         1 JJJ       0.391000
     17 HNA        -54.0280    24.6120    -9.9260 hn         1 JJJ       0.391000
     18 H4         -57.9000    24.5910   -14.5380 ha         1 JJJ       0.138000
     19 H5         -59.9380    23.4570   -15.4130 ha         1 JJJ       0.117000
     20 H6         -59.8250    21.0350   -15.9310 h4         1 JJJ       0.008100
     21 HA         -52.7870    22.6140   -10.8740 h1         1 JJJ       0.008700
     22 HB         -53.1140    24.4230   -13.3130 h1         1 JJJ       0.087200
     23 HBA        -52.0590    23.0090   -13.1730 h1         1 JJJ       0.087200
     24 H2         -55.8900    20.8060   -14.8220 h4         1 JJJ       0.040100
@<TRIPOS>BOND
     1     1     3 1   
     2     1    12 1   
     3     1    15 1   
     4     2    12 1   
     5     2    16 1   
     6     2    17 1   
     7     4     5 ar  
     8     4     9 ar  
     9     5     6 ar  
    10     5    24 1   
    11     6     7 ar  
    12     6    10 1   
    13     7     8 ar  
    14     7    18 1   
    15     8     9 ar  
    16     8    19 1   
    17     9    20 1   
    18    10    11 2   
    19    10    14 1   
    20    12    13 1   
    21    12    21 1   
    22    13    14 1   
    23    13    22 1   
    24    13    23 1   
@<TRIPOS>SUBSTRUCTURE
     1 JJJ         1 TEMP              0 ****  ****    0 ROOT
