@<TRIPOS>MOLECULE
JJK
   26    26     1     0     0
SMALL
No Charge or Current Charge


@<TRIPOS>ATOM
      1 C          -56.0640    21.5130     6.2260 c          1 JJK       0.702000
      2 N          -56.1860    23.8390     7.4160 n8         1 JJK      -1.012200
      3 O          -55.8700    21.2600     5.0460 o          1 JJK      -0.717000
      4 N1         -51.6680    25.8150    12.4070 nb         1 JJK      -0.681000
      5 C2         -52.5740    25.1620    11.6380 ca         1 JJK       0.343900
      6 C3         -52.6560    25.3120    10.2430 ca         1 JJK      -0.108300
      7 C4         -51.7520    26.1830     9.6060 ca         1 JJK      -0.039000
      8 C5         -50.8110    26.8620    10.3980 ca         1 JJK      -0.178000
      9 C6         -50.8030    26.6510    11.7870 ca         1 JJK       0.319900
     10 C7         -53.7040    24.5360     9.4660 c3         1 JJK       0.428600
     11 O7         -54.5240    25.4180     8.7320 oh         1 JJK      -0.712000
     12 CA         -55.3020    22.7370     6.8640 c3         1 JJK      -0.003500
     13 CB         -54.2960    22.2030     7.9190 c3         1 JJK       0.121600
     14 SG         -52.9080    23.3990     8.2690 ss         1 JJK      -0.595000
     15 OXT        -56.8970    20.9320     6.9100 o          1 JJK      -0.717000
     16 HN         -56.7550    24.2180     6.6440 hn         1 JJK       0.406500
     17 HNA        -56.9080    23.3990     8.0070 hn         1 JJK       0.406500
     18 H2         -53.2560    24.4950    12.1650 h4         1 JJK       0.017100
     19 H4         -51.7800    26.3270     8.5280 ha         1 JJK       0.137000
     20 H5         -50.0950    27.5440     9.9470 ha         1 JJK       0.111000
     21 H6         -50.0840    27.1650    12.4240 h4         1 JJK       0.003100
     22 H7         -54.3300    23.9450    10.1480 h2         1 JJK       0.037700
     23 HO7        -55.1010    24.8020     8.1840 ho         1 JJK       0.523000
     24 HA         -54.7070    23.1750     6.0520 h1         1 JJK       0.059700
     25 HB         -54.8180    21.9410     8.8490 h1         1 JJK       0.072200
     26 HBA        -53.8410    21.2830     7.5270 h1         1 JJK       0.072200
@<TRIPOS>BOND
     1     1     3 1   
     2     1    12 1   
     3     1    15 1   
     4     2    12 1   
     5     2    16 1   
     6     2    17 1   
     7     4     5 ar  
     8     4     9 ar  
     9     5     6 ar  
    10     5    18 1   
    11     6     7 ar  
    12     6    10 1   
    13     7     8 ar  
    14     7    19 1   
    15     8     9 ar  
    16     8    20 1   
    17     9    21 1   
    18    10    11 1   
    19    10    14 1   
    20    10    22 1   
    21    11    23 1   
    22    12    13 1   
    23    12    24 1   
    24    13    14 1   
    25    13    25 1   
    26    13    26 1   
@<TRIPOS>SUBSTRUCTURE
     1 JJK         1 TEMP              0 ****  ****    0 ROOT
