@<TRIPOS>MOLECULE
JJK
   26    26     1     0     0
SMALL
abcg2


@<TRIPOS>ATOM
      1 C          -56.1130    21.5070     6.3790 c          1 JJK       0.702000
      2 N          -55.9710    23.8890     7.2070 n8         1 JJK      -1.012200
      3 O          -55.5110    20.5600     5.8400 o          1 JJK      -0.717000
      4 N1         -51.3130    25.4330    12.1930 nb         1 JJK      -0.681000
      5 C2         -52.2970    24.8650    11.5100 ca         1 JJK       0.343900
      6 C3         -52.7280    25.2990    10.2600 ca         1 JJK      -0.108300
      7 C4         -52.0860    26.3980     9.7040 ca         1 JJK      -0.039000
      8 C5         -51.0530    26.9970    10.4090 ca         1 JJK      -0.178000
      9 C6         -50.7040    26.4790    11.6460 ca         1 JJK       0.319900
     10 C7         -53.8300    24.5840     9.5310 c3         1 JJK       0.428600
     11 O7         -54.6030    25.4840     8.8380 oh         1 JJK      -0.712000
     12 CA         -55.2150    22.6980     6.8320 c3         1 JJK      -0.003500
     13 CB         -54.3320    22.2280     7.9870 c3         1 JJK       0.121600
     14 SG         -52.9760    23.3490     8.4510 ss         1 JJK      -0.595000
     15 OXT        -57.3320    21.5990     6.6150 o          1 JJK      -0.717000
     16 HN         -56.2680    24.3760     6.3690 hn         1 JJK       0.406500
     17 HNA        -56.8330    23.5790     7.6460 hn         1 JJK       0.406500
     18 H2         -52.7830    24.0130    11.9780 h4         1 JJK       0.017100
     19 H4         -52.3860    26.7830     8.7390 ha         1 JJK       0.137000
     20 H5         -50.5290    27.8550    10.0090 ha         1 JJK       0.111000
     21 H6         -49.9020    26.9290    12.2220 h4         1 JJK       0.003100
     22 H7         -54.4090    23.9800    10.2450 h2         1 JJK       0.037700
     23 HO7        -55.1800    24.9520     8.2050 ho         1 JJK       0.523000
     24 HA         -54.5580    22.9620     5.9990 h1         1 JJK       0.059700
     25 HB         -54.9350    22.0240     8.8770 h1         1 JJK       0.072200
     26 HBA        -53.8460    21.2920     7.7090 h1         1 JJK       0.072200
@<TRIPOS>BOND
     1     1     3 1   
     2     1    12 1   
     3     1    15 1   
     4     2    12 1   
     5     2    16 1   
     6     2    17 1   
     7     4     5 ar  
     8     4     9 ar  
     9     5     6 ar  
    10     5    18 1   
    11     6     7 ar  
    12     6    10 1   
    13     7     8 ar  
    14     7    19 1   
    15     8     9 ar  
    16     8    20 1   
    17     9    21 1   
    18    10    11 1   
    19    10    14 1   
    20    10    22 1   
    21    11    23 1   
    22    12    13 1   
    23    12    24 1   
    24    13    14 1   
    25    13    25 1   
    26    13    26 1   
@<TRIPOS>SUBSTRUCTURE
     1 JJK         1 TEMP              0 ****  ****    0 ROOT
