@<TRIPOS>MOLECULE
JJL
   30    30     1     0     0
SMALL
No Charge or Current Charge


@<TRIPOS>ATOM
      1 C            3.1160    34.7380    17.6830 c          1 JJL       0.702000
      2 N            2.5740    36.5940    15.9210 n8         1 JJL      -1.013200
      3 O            3.1180    33.5230    17.5430 o          1 JJL      -0.717000
      4 N1           7.2560    41.3990    13.8650 nb         1 JJL      -0.653000
      5 C2           6.4400    40.5730    14.5650 ca         1 JJL       0.307900
      6 C3           6.0370    39.3070    14.1000 ca         1 JJL      -0.071300
      7 C4           6.5010    38.8640    12.8420 ca         1 JJL      -0.128000
      8 C5           7.3510    39.7130    12.1010 ca         1 JJL       0.071100
      9 C6           7.6970    40.9670    12.6570 ca         1 JJL       0.294900
     10 C7           5.1200    38.4530    14.9630 c3         1 JJL       0.423600
     11 O7           3.9400    38.1280    14.2590 oh         1 JJL      -0.710000
     12 CA           3.6040    35.6300    16.4780 c3         1 JJL      -0.003500
     13 CB           4.9220    36.3420    16.8850 c3         1 JJL       0.121600
     14 SG           5.9410    36.8780    15.4190 ss         1 JJL      -0.591000
     15 O15          7.8560    39.3640    10.8600 os         1 JJL      -0.345100
     16 C16          7.5500    38.1050    10.2350 c3         1 JJL       0.148900
     17 OXT          2.6580    35.3010    18.6680 o          1 JJL      -0.717000
     18 HN           1.7690    36.0500    15.5760 hn         1 JJL       0.406000
     19 HNA          2.1540    37.1010    16.7160 hn         1 JJL       0.406000
     20 H2           6.1000    40.9430    15.5320 h4         1 JJL       0.022100
     21 H4           6.1970    37.8880    12.4730 ha         1 JJL       0.143000
     22 H6           8.3510    41.6480    12.1140 h4         1 JJL       0.018100
     23 H7           4.8530    38.9870    15.8840 h2         1 JJL       0.039700
     24 HO7          3.4670    37.4880    14.8740 ho         1 JJL       0.523000
     25 HA           3.8600    34.9290    15.6700 h1         1 JJL       0.058700
     26 HB           4.7080    37.2000    17.5370 h1         1 JJL       0.072200
     27 HBA          5.5310    35.6350    17.4640 h1         1 JJL       0.072200
     28 H16          8.0510    38.0320     9.2610 h1         1 JJL       0.039700
     29 H16A         7.8920    37.2670    10.8560 h1         1 JJL       0.039700
     30 H16B         6.4700    38.0030    10.0700 h1         1 JJL       0.039700
@<TRIPOS>BOND
     1     1     3 1   
     2     1    12 1   
     3     1    17 1   
     4     2    12 1   
     5     2    18 1   
     6     2    19 1   
     7     4     5 ar  
     8     4     9 ar  
     9     5     6 ar  
    10     5    20 1   
    11     6     7 ar  
    12     6    10 1   
    13     7     8 ar  
    14     7    21 1   
    15     8     9 ar  
    16     8    15 1   
    17     9    22 1   
    18    10    11 1   
    19    10    14 1   
    20    10    23 1   
    21    11    24 1   
    22    12    13 1   
    23    12    25 1   
    24    13    14 1   
    25    13    26 1   
    26    13    27 1   
    27    15    16 1   
    28    16    28 1   
    29    16    29 1   
    30    16    30 1   
@<TRIPOS>SUBSTRUCTURE
     1 JJL         1 TEMP              0 ****  ****    0 ROOT
