@<TRIPOS>MOLECULE
JJL
   30    30     1     0     0
SMALL
abcg2


@<TRIPOS>ATOM
      1 C            3.0190    35.0370    17.8560 c          1 JJL       0.702000
      2 N            2.8150    36.2300    15.6380 n8         1 JJL      -1.013200
      3 O            3.7150    34.2980    18.5780 o          1 JJL      -0.717000
      4 N1           7.6760    40.9640    14.1130 nb         1 JJL      -0.653000
      5 C2           6.7370    40.2490    14.7220 ca         1 JJL       0.307900
      6 C3           6.0680    39.2020    14.1060 ca         1 JJL      -0.071300
      7 C4           6.3890    38.8890    12.7900 ca         1 JJL      -0.128000
      8 C5           7.3700    39.6370    12.1500 ca         1 JJL       0.071100
      9 C6           7.9880    40.6680    12.8640 ca         1 JJL       0.294900
     10 C7           5.0410    38.4030    14.8620 c3         1 JJL       0.423600
     11 O7           4.0670    37.9370    14.0140 oh         1 JJL      -0.710000
     12 CA           3.7250    35.5800    16.5780 c3         1 JJL      -0.003500
     13 CB           4.8330    36.5350    17.0130 c3         1 JJL       0.121600
     14 SG           5.9880    37.0600    15.7090 ss         1 JJL      -0.591000
     15 O15          7.7800    39.4530    10.8850 os         1 JJL      -0.345100
     16 C16          7.1770    38.4210    10.1290 c3         1 JJL       0.148900
     17 OXT          1.8470    35.4080    18.0530 o          1 JJL      -0.717000
     18 HN           2.2970    35.5210    15.1310 hn         1 JJL       0.406000
     19 HNA          2.1120    36.7200    16.1840 hn         1 JJL       0.406000
     20 H2           6.5040    40.5190    15.7470 h4         1 JJL       0.022100
     21 H4           5.8730    38.0800    12.2920 ha         1 JJL       0.143000
     22 H6           8.7570    41.2660    12.3850 h4         1 JJL       0.018100
     23 H7           4.6390    39.0200    15.6800 h2         1 JJL       0.039700
     24 HO7          3.5150    37.2850    14.5490 ho         1 JJL       0.523000
     25 HA           4.1950    34.7380    16.0640 h1         1 JJL       0.058700
     26 HB           4.4120    37.4290    17.4830 h1         1 JJL       0.072200
     27 HBA          5.4540    36.0440    17.7620 h1         1 JJL       0.072200
     28 H16          7.6410    38.4470     9.1460 h1         1 JJL       0.039700
     29 H16A         7.3480    37.4370    10.5750 h1         1 JJL       0.039700
     30 H16B         6.1010    38.5740    10.0150 h1         1 JJL       0.039700
@<TRIPOS>BOND
     1     1     3 1   
     2     1    12 1   
     3     1    17 1   
     4     2    12 1   
     5     2    18 1   
     6     2    19 1   
     7     4     5 ar  
     8     4     9 ar  
     9     5     6 ar  
    10     5    20 1   
    11     6     7 ar  
    12     6    10 1   
    13     7     8 ar  
    14     7    21 1   
    15     8     9 ar  
    16     8    15 1   
    17     9    22 1   
    18    10    11 1   
    19    10    14 1   
    20    10    23 1   
    21    11    24 1   
    22    12    13 1   
    23    12    25 1   
    24    13    14 1   
    25    13    26 1   
    26    13    27 1   
    27    15    16 1   
    28    16    28 1   
    29    16    29 1   
    30    16    30 1   
@<TRIPOS>SUBSTRUCTURE
     1 JJL         1 TEMP              0 ****  ****    0 ROOT
