@<TRIPOS>MOLECULE
JJM
   31    33     1     0     0
SMALL
bcc


@<TRIPOS>ATOM
      1 C10          1.7310     0.4390    -0.0910 ca         1 JJM      -0.522500
      2 N12          3.5080     1.7860    -0.2420 nc         1 JJM      -0.520100
      3 C02         -4.3150     0.6390    -0.1210 ca         1 JJM      -0.047300
      4 C03         -4.6970    -0.6900     0.0570 ca         1 JJM      -0.152000
      5 C04         -3.7310    -1.6740     0.1900 ca         1 JJM      -0.102000
      6 C05         -2.3760    -1.3740     0.1500 ca         1 JJM      -0.145000
      7 C06         -1.9820    -0.0480    -0.0290 ca         1 JJM       0.165600
      8 C07         -2.9610     0.9420    -0.1650 ca         1 JJM      -0.186000
      9 N08         -0.6570     0.3940    -0.0870 nu         1 JJM      -0.728300
     10 C09          0.5130    -0.2730    -0.0120 ca         1 JJM       0.788200
     11 C11          2.1990     1.7640    -0.2400 cd         1 JJM       0.384800
     12 N13          3.9290     0.5190    -0.0990 na         1 JJM       0.012200
     13 C14          2.8920    -0.3320    -0.0050 ca         1 JJM       0.481800
     14 N15          2.9400    -1.6610     0.1430 nb         1 JJM      -0.747000
     15 C16          1.7430    -2.1980     0.2030 ca         1 JJM       0.719900
     16 N17          0.5530    -1.5900     0.1350 nb         1 JJM      -0.819000
     17 C18          5.3360     0.2090    -0.0670 c3         1 JJM       0.051600
     18 H011        -5.6740     2.0540     0.7510 hc         1 JJM       0.043033
     19 H012        -4.9520     2.6000    -0.7560 hc         1 JJM       0.043033
     20 H013        -6.2270     1.3820    -0.7740 hc         1 JJM       0.043033
     21 H031        -5.7480    -0.9500     0.0910 ha         1 JJM       0.132000
     22 H041        -4.0310    -2.7050     0.3280 ha         1 JJM       0.133000
     23 H051        -1.6430    -2.1560     0.2510 ha         1 JJM       0.171000
     24 H071        -2.6550     1.9730    -0.3110 ha         1 JJM       0.124000
     25 H081        -0.5660     1.3920    -0.2020 hn         1 JJM       0.443800
     26 H111         1.6390     2.6820    -0.3440 h4         1 JJM       0.047800
     27 H161         1.7030    -3.2750     0.3220 h5         1 JJM       0.048100
     28 H181         5.8190     0.7330     0.7560 h1         1 JJM       0.061033
     29 H182         5.4500    -0.8610     0.0800 h1         1 JJM       0.061033
     30 H183         5.8110     0.4920    -1.0040 h1         1 JJM       0.061033
     31 C01         -5.3430     1.7260    -0.2370 c3         1 JJM      -0.048800
@<TRIPOS>BOND
     1     1    10 ar  
     2     1    11 1   
     3     1    13 ar  
     4     2    11 2   
     5     2    12 1   
     6     3     4 ar  
     7     3     8 ar  
     8     3    31 1   
     9     4     5 ar  
    10     4    21 1   
    11     5     6 ar  
    12     5    22 1   
    13     6     7 ar  
    14     6    23 1   
    15     7     8 ar  
    16     7     9 1   
    17     8    24 1   
    18     9    10 1   
    19     9    25 1   
    20    10    16 ar  
    21    11    26 1   
    22    12    13 1   
    23    12    17 1   
    24    13    14 ar  
    25    14    15 ar  
    26    15    16 ar  
    27    15    27 1   
    28    17    28 1   
    29    17    29 1   
    30    17    30 1   
    31    18    31 1   
    32    19    31 1   
    33    20    31 1   
@<TRIPOS>SUBSTRUCTURE
     1 JJM         1 TEMP              0 ****  ****    0 ROOT
