@<TRIPOS>MOLECULE
JJM
   31    33     1     0     0
SMALL
No Charge or Current Charge


@<TRIPOS>ATOM
      1 C10          1.7820     0.3260     0.0160 ca         1 JJM      -0.391900
      2 N12          3.4670     1.8280     0.3810 nc         1 JJM      -0.520100
      3 C02         -4.3270     0.6320    -0.2000 ca         1 JJM      -0.047300
      4 C03         -4.7170    -0.6330     0.2740 ca         1 JJM      -0.134000
      5 C04         -3.7480    -1.5710     0.6640 ca         1 JJM      -0.084000
      6 C05         -2.3820    -1.2480     0.5770 ca         1 JJM      -0.127000
      7 C06         -1.9780     0.0110     0.0920 ca         1 JJM       0.304000
      8 C07         -2.9570     0.9480    -0.2810 ca         1 JJM      -0.168000
      9 N08         -0.6330     0.3850     0.0030 nu         1 JJM      -0.921900
     10 C09          0.5570    -0.3130    -0.1280 ca         1 JJM       0.459900
     11 C11          2.1350     1.6820     0.3420 cd         1 JJM       0.384800
     12 N13          3.9590     0.5550     0.0780 na         1 JJM      -0.017100
     13 C14          2.9460    -0.3630    -0.1430 ca         1 JJM       0.153500
     14 N15          2.9490    -1.6740    -0.4510 nb         1 JJM      -0.221000
     15 C16          1.7240    -2.2390    -0.5890 ca         1 JJM       0.193900
     16 N17          0.5250    -1.6210    -0.4460 nb         1 JJM      -0.293000
     17 C18          5.3930     0.2290     0.0050 c3         1 JJM       0.080900
     18 H011        -5.6420     2.3010     0.2300 hc         1 JJM       0.043033
     19 H012        -5.0100     2.2950    -1.4250 hc         1 JJM       0.043033
     20 H013        -6.2920     1.1670    -0.9660 hc         1 JJM       0.043033
     21 H031        -5.7720    -0.8880     0.3460 ha         1 JJM       0.114000
     22 H041        -4.0530    -2.5450     1.0410 ha         1 JJM       0.115000
     23 H051        -1.6470    -1.9740     0.9050 ha         1 JJM       0.153000
     24 H071        -2.6550     1.9270    -0.6440 ha         1 JJM       0.106000
     25 H081        -0.5020     1.3910    -0.0640 hn         1 JJM       0.499000
     26 H111         1.5030     2.5370     0.5480 h4         1 JJM       0.047800
     27 H161         1.7010    -3.2980    -0.8420 h5         1 JJM       0.048100
     28 H181         5.9910     1.1240     0.2160 h1         1 JJM       0.061033
     29 H182         5.6300    -0.5470     0.7420 h1         1 JJM       0.061033
     30 H183         5.6340    -0.1390    -0.9990 h1         1 JJM       0.061033
     31 C01         -5.3750     1.6540    -0.6130 c3         1 JJM      -0.048800
@<TRIPOS>BOND
     1     1    10 ar  
     2     1    11 1   
     3     1    13 ar  
     4     2    11 2   
     5     2    12 1   
     6     3     4 ar  
     7     3     8 ar  
     8     3    31 1   
     9     4     5 ar  
    10     4    21 1   
    11     5     6 ar  
    12     5    22 1   
    13     6     7 ar  
    14     6    23 1   
    15     7     8 ar  
    16     7     9 1   
    17     8    24 1   
    18     9    10 1   
    19     9    25 1   
    20    10    16 ar  
    21    11    26 1   
    22    12    13 1   
    23    12    17 1   
    24    13    14 ar  
    25    14    15 ar  
    26    15    16 ar  
    27    15    27 1   
    28    17    28 1   
    29    17    29 1   
    30    17    30 1   
    31    18    31 1   
    32    19    31 1   
    33    20    31 1   
@<TRIPOS>SUBSTRUCTURE
     1 JJM         1 TEMP              0 ****  ****    0 ROOT
