@<TRIPOS>MOLECULE
JJN
   51    55     1     0     0
SMALL
abcg2


@<TRIPOS>ATOM
      1 C4           0.5010     3.4940    -1.7950 ca         1 JJN      -0.152000
      2 C5           0.2900     2.3490    -1.0430 ca         1 JJN       0.273000
      3 C6           1.2300     1.9230    -0.1070 ca         1 JJN      -0.143300
      4 C8          -0.4130     0.2340    -0.4250 c5         1 JJN       0.405600
      5 C10          1.3280    -1.3470    -1.3860 c          1 JJN       0.587600
      6 C13          1.7470    -0.3380     0.8520 ca         1 JJN      -0.038300
      7 C15          3.4670    -1.2220     2.2900 ca         1 JJN      -0.087000
      8 C17          3.1050    -2.1970     0.1270 ca         1 JJN      -0.052000
      9 C20         -2.3630     0.4540     1.1960 c6         1 JJN      -0.069900
     10 C21         -3.6890    -0.1140     1.6790 c6         1 JJN       0.166800
     11 C24         -2.6420    -0.8760    -0.8820 c6         1 JJN      -0.069900
     12 C1           1.6810     4.2060    -1.5840 ca         1 JJN      -0.074000
     13 C2           2.6220     3.7860    -0.6530 ca         1 JJN      -0.146000
     14 C3           2.3940     2.6310     0.0980 ca         1 JJN      -0.053000
     15 N7          -0.7980     1.4960    -1.0430 nu         1 JJN      -0.928200
     16 C9           0.6900     0.6820     0.5660 c5         1 JJN       0.025900
     17 N11          0.2040    -0.6100    -1.4520 ns         1 JJN      -0.533900
     18 C12          2.0790    -1.2880    -0.1080 ca         1 JJN      -0.140600
     19 C14          2.4450    -0.3140     2.0530 ca         1 JJN      -0.121000
     20 C16          3.7990    -2.1660     1.3260 ca         1 JJN      -0.123000
     21 O18          1.7050    -2.0360    -2.3260 o          1 JJN      -0.567000
     22 C19         -1.6360    -0.4840     0.2170 c6         1 JJN      -0.034000
     23 N22         -4.5670    -0.4190     0.5680 n3         1 JJN      -0.714600
     24 C23         -3.9640    -1.3860    -0.3260 c6         1 JJN       0.166800
     25 C25         -1.1660    -1.7410     0.9520 c3         1 JJN      -0.091100
     26 H1          -0.2230     3.8280    -2.5280 ha         1 JJN       0.118000
     27 H2           4.0020    -1.1960     3.2300 ha         1 JJN       0.115000
     28 H3           3.3530    -2.9320    -0.6260 ha         1 JJN       0.138000
     29 H4          -2.5550     1.4120     0.7100 hc         1 JJN       0.051950
     30 H5          -1.7430     0.6620     2.0720 hc         1 JJN       0.051950
     31 H6          -3.5240    -0.9940     2.3260 h1         1 JJN       0.031700
     32 H7          -4.1770     0.6350     2.3100 h1         1 JJN       0.031700
     33 H8          -2.8670    -0.0130    -1.5160 hc         1 JJN       0.051950
     34 H9          -2.2200    -1.6480    -1.5290 hc         1 JJN       0.051950
     35 H10         -6.3240    -0.0950     1.6510 h1         1 JJN       0.030700
     36 H11         -6.5240    -1.0300     0.1700 h1         1 JJN       0.030700
     37 H12         -5.8270    -1.7940     1.6060 h1         1 JJN       0.030700
     38 H13          1.8650     5.1010    -2.1650 ha         1 JJN       0.112000
     39 H14          3.5340     4.3510    -0.5130 ha         1 JJN       0.115000
     40 H15          3.1290     2.2960     0.8200 ha         1 JJN       0.118000
     41 H16         -1.3560     1.4500    -1.8820 hn         1 JJN       0.467000
     42 H17          0.2210     0.9760     1.5110 hc         1 JJN       0.084700
     43 H18         -0.3000    -0.6830    -2.3250 hn         1 JJN       0.308500
     44 H19          2.1860     0.4190     2.8080 ha         1 JJN       0.116000
     45 H20          4.5940    -2.8760     1.5090 ha         1 JJN       0.119000
     46 H22         -4.6470    -1.5620    -1.1610 h1         1 JJN       0.031700
     47 H23         -3.8240    -2.3660     0.1630 h1         1 JJN       0.031700
     48 H24         -0.4780    -1.5080     1.7650 hc         1 JJN       0.041367
     49 H25         -2.0070    -2.2720     1.3950 hc         1 JJN       0.041367
     50 H26         -0.6690    -2.4430     0.2810 hc         1 JJN       0.041367
     51 C26         -5.8650    -0.8610     1.0230 c3         1 JJN       0.152100
@<TRIPOS>BOND
     1     1     2 ar  
     2     1    12 ar  
     3     1    26 1   
     4     2     3 ar  
     5     2    15 1   
     6     3    14 ar  
     7     3    16 1   
     8     4    15 1   
     9     4    16 1   
    10     4    17 1   
    11     4    22 1   
    12     5    17 1   
    13     5    18 1   
    14     5    21 2   
    15     6    16 1   
    16     6    18 ar  
    17     6    19 ar  
    18     7    19 ar  
    19     7    20 ar  
    20     7    27 1   
    21     8    18 ar  
    22     8    20 ar  
    23     8    28 1   
    24     9    10 1   
    25     9    22 1   
    26     9    29 1   
    27     9    30 1   
    28    10    23 1   
    29    10    31 1   
    30    10    32 1   
    31    11    22 1   
    32    11    24 1   
    33    11    33 1   
    34    11    34 1   
    35    12    13 ar  
    36    12    38 1   
    37    13    14 ar  
    38    13    39 1   
    39    14    40 1   
    40    15    41 1   
    41    16    42 1   
    42    17    43 1   
    43    19    44 1   
    44    20    45 1   
    45    22    25 1   
    46    23    24 1   
    47    23    51 1   
    48    24    46 1   
    49    24    47 1   
    50    25    48 1   
    51    25    49 1   
    52    25    50 1   
    53    35    51 1   
    54    36    51 1   
    55    37    51 1   
@<TRIPOS>SUBSTRUCTURE
     1 JJN         1 TEMP              0 ****  ****    0 ROOT
