@<TRIPOS>MOLECULE
JJN
   51    55     1     0     0
SMALL
No Charge or Current Charge


@<TRIPOS>ATOM
      1 C4           0.6120     3.5330    -1.8780 ca         1 JJN      -0.152000
      2 C5           0.3610     2.4340    -1.0500 ca         1 JJN       0.273000
      3 C6           1.2670     2.0220    -0.1090 ca         1 JJN      -0.143300
      4 C8          -0.4120     0.3270    -0.4120 c5         1 JJN       0.405600
      5 C10          1.2470    -1.2580    -1.3770 c          1 JJN       0.587600
      6 C13          1.7630    -0.2700     0.8740 ca         1 JJN      -0.038300
      7 C15          3.4480    -1.2830     2.3270 ca         1 JJN      -0.087000
      8 C17          2.9630    -2.2610     0.1590 ca         1 JJN      -0.052000
      9 C20         -2.4180     0.4420     1.2430 c6         1 JJN      -0.069900
     10 C21         -3.7520    -0.1790     1.7330 c6         1 JJN       0.166800
     11 C24         -2.6470    -0.8940    -0.8880 c6         1 JJN      -0.069900
     12 C1           1.8250     4.2350    -1.7140 ca         1 JJN      -0.074000
     13 C2           2.7550     3.8200    -0.7360 ca         1 JJN      -0.146000
     14 C3           2.4810     2.7030     0.0790 ca         1 JJN      -0.053000
     15 N7          -0.7550     1.6160    -1.0790 nu         1 JJN      -0.928200
     16 C9           0.7360     0.8200     0.6180 c5         1 JJN       0.025900
     17 N11          0.2000    -0.3820    -1.5370 ns         1 JJN      -0.533900
     18 C12          1.9990    -1.2650    -0.0850 ca         1 JJN      -0.140600
     19 C14          2.4910    -0.2840     2.0800 ca         1 JJN      -0.121000
     20 C16          3.6850    -2.2740     1.3630 ca         1 JJN      -0.123000
     21 O18          1.5570    -1.9800    -2.3120 o          1 JJN      -0.567000
     22 C19         -1.6330    -0.4730     0.2360 c6         1 JJN      -0.034000
     23 N22         -4.6430    -0.5350     0.5980 n3         1 JJN      -0.714600
     24 C23         -3.9790    -1.4760    -0.3400 c6         1 JJN       0.166800
     25 C25         -1.1330    -1.7590     0.9870 c3         1 JJN      -0.091100
     26 H1          -0.1120     3.8400    -2.6270 ha         1 JJN       0.118000
     27 H2           4.0050    -1.2860     3.2610 ha         1 JJN       0.115000
     28 H3           3.1410    -3.0240    -0.5940 ha         1 JJN       0.138000
     29 H4          -2.6480     1.4090     0.7760 hc         1 JJN       0.051950
     30 H5          -1.8040     0.6690     2.1230 hc         1 JJN       0.051950
     31 H6          -3.5450    -1.0640     2.3520 h1         1 JJN       0.031700
     32 H7          -4.2530     0.5510     2.3870 h1         1 JJN       0.031700
     33 H8          -2.8930    -0.0280    -1.5150 hc         1 JJN       0.051950
     34 H9          -2.1910    -1.6340    -1.5590 hc         1 JJN       0.051950
     35 H10         -6.4550    -0.2860     1.6910 h1         1 JJN       0.030700
     36 H11         -6.6180    -1.2240     0.1920 h1         1 JJN       0.030700
     37 H12         -5.8560    -1.9610     1.6230 h1         1 JJN       0.030700
     38 H13          2.0430     5.0960    -2.3430 ha         1 JJN       0.112000
     39 H14          3.6900     4.3630    -0.6120 ha         1 JJN       0.115000
     40 H15          3.1940     2.3750     0.8330 ha         1 JJN       0.118000
     41 H16         -1.3200     1.6430    -1.9240 hn         1 JJN       0.467000
     42 H17          0.2910     1.1490     1.5610 hc         1 JJN       0.084700
     43 H18         -0.2260    -0.3880    -2.4500 hn         1 JJN       0.308500
     44 H19          2.3160     0.4840     2.8300 ha         1 JJN       0.116000
     45 H20          4.4260    -3.0490     1.5470 ha         1 JJN       0.119000
     46 H22         -4.6410    -1.6850    -1.1930 h1         1 JJN       0.031700
     47 H23         -3.7880    -2.4400     0.1530 h1         1 JJN       0.031700
     48 H24         -0.4600    -1.5080     1.8140 hc         1 JJN       0.041367
     49 H25         -1.9510    -2.3400     1.4220 hc         1 JJN       0.041367
     50 H26         -0.5960    -2.4370     0.3140 hc         1 JJN       0.041367
     51 C26         -5.9610    -1.0290     1.0510 c3         1 JJN       0.152100
@<TRIPOS>BOND
     1     1     2 ar  
     2     1    12 ar  
     3     1    26 1   
     4     2     3 ar  
     5     2    15 1   
     6     3    14 ar  
     7     3    16 1   
     8     4    15 1   
     9     4    16 1   
    10     4    17 1   
    11     4    22 1   
    12     5    17 1   
    13     5    18 1   
    14     5    21 2   
    15     6    16 1   
    16     6    18 ar  
    17     6    19 ar  
    18     7    19 ar  
    19     7    20 ar  
    20     7    27 1   
    21     8    18 ar  
    22     8    20 ar  
    23     8    28 1   
    24     9    10 1   
    25     9    22 1   
    26     9    29 1   
    27     9    30 1   
    28    10    23 1   
    29    10    31 1   
    30    10    32 1   
    31    11    22 1   
    32    11    24 1   
    33    11    33 1   
    34    11    34 1   
    35    12    13 ar  
    36    12    38 1   
    37    13    14 ar  
    38    13    39 1   
    39    14    40 1   
    40    15    41 1   
    41    16    42 1   
    42    17    43 1   
    43    19    44 1   
    44    20    45 1   
    45    22    25 1   
    46    23    24 1   
    47    23    51 1   
    48    24    46 1   
    49    24    47 1   
    50    25    48 1   
    51    25    49 1   
    52    25    50 1   
    53    35    51 1   
    54    36    51 1   
    55    37    51 1   
@<TRIPOS>SUBSTRUCTURE
     1 JJN         1 TEMP              0 ****  ****    0 ROOT
