@<TRIPOS>MOLECULE
JJO
   59    62     1     0     0
SMALL
No Charge or Current Charge


@<TRIPOS>ATOM
      1 C10          8.2530    -4.3750    26.8980 ca         1 JJO       0.341900
      2 C13          8.1800    -3.4220    29.4710 ca         1 JJO      -0.169000
      3 C15          5.8860    -3.3940    24.2180 ca         1 JJO      -0.014000
      4 C17          6.2960    -3.5530    21.8020 ca         1 JJO      -0.014000
      5 C20          5.0720    -4.5400    24.1440 ca         1 JJO      -0.137000
      6 C24          1.2890    -1.8990    25.1510 cc         1 JJO      -0.205000
      7 C26          8.8640     1.2400    28.3750 ca         1 JJO      -0.109300
      8 C28          7.3750     2.0650    30.1240 ca         1 JJO      -0.112000
      9 C01          9.1700     1.0090    26.9030 c3         1 JJO       0.156300
     10 C03          7.5180    -0.7010    26.0850 c          1 JJO       0.615100
     11 C04          7.3030    -2.2330    25.9110 c3         1 JJO       0.085000
     12 C07          3.4660    -2.1820    25.5200 cd         1 JJO       0.057500
     13 C09          7.7680    -3.0690    27.1150 ca         1 JJO      -0.171300
     14 C12          8.6530    -4.7060    29.1560 ca         1 JJO       0.340900
     15 C14          7.7260    -2.5850    28.4400 ca         1 JJO      -0.051000
     16 C16          6.4460    -2.8800    23.0300 ca         1 JJO      -0.157000
     17 C18          5.5280    -4.7370    21.7610 ca         1 JJO      -0.130000
     18 C19          4.9120    -5.2200    22.9270 ca         1 JJO      -0.077000
     19 C23          1.9320    -2.1200    23.9650 cd         1 JJO       0.146900
     20 C25          2.2760    -1.9290    26.1540 cc         1 JJO      -0.109000
     21 C27          7.6670     1.8730    28.7620 ca         1 JJO      -0.082500
     22 C29          8.2770     1.6220    31.1060 ca         1 JJO      -0.103000
     23 C30          9.4710     0.9870    30.7260 ca         1 JJO      -0.112000
     24 C31          9.7640     0.7960    29.3640 ca         1 JJO      -0.082500
     25 C33          7.0420    -3.4120    19.3430 c          1 JJO       0.605100
     26 C34          7.7910    -2.4280    18.4350 c3         1 JJO       0.024600
     27 N02          8.7810    -0.3430    26.5110 ns         1 JJO      -0.490900
     28 N05          5.9420    -2.6230    25.4310 n          1 JJO      -0.219400
     29 N11          8.6910    -5.1830    27.8910 nb         1 JJO      -0.664000
     30 N32          6.9150    -2.9780    20.6570 ns         1 JJO      -0.135000
     31 O08          6.6570     0.1390    25.8530 o          1 JJO      -0.586100
     32 O21          4.9070    -1.9580    27.3980 o          1 JJO      -0.575100
     33 O22          3.2870    -2.2780    24.1520 os         1 JJO      -0.209000
     34 O35          6.6160    -4.4830    18.9220 o          1 JJO      -0.578100
     35 H1           8.2950    -4.7890    25.8910 h4         1 JJO       0.020100
     36 H2           8.1670    -3.0870    30.5040 ha         1 JJO       0.127000
     37 H3           4.5750    -4.9160    25.0350 ha         1 JJO       0.124000
     38 H4           0.2270    -1.7290    25.3010 ha         1 JJO       0.146000
     39 H5           6.4490     2.5540    30.4170 ha         1 JJO       0.110000
     40 H6          10.2460     1.1320    26.7240 h1         1 JJO       0.054700
     41 H7           8.6410     1.7440    26.2830 h1         1 JJO       0.054700
     42 H8           8.0060    -2.4830    25.1080 h1         1 JJO       0.079700
     43 H9           9.0100    -5.3740    29.9390 h4         1 JJO       0.022100
     44 H10          7.3490    -1.5900    28.6750 ha         1 JJO       0.139000
     45 H11          7.0010    -1.9450    23.0590 ha         1 JJO       0.131000
     46 H12          5.3740    -5.2830    20.8360 ha         1 JJO       0.150000
     47 H13          4.3000    -6.1190    22.8850 ha         1 JJO       0.120000
     48 H14          1.5550    -2.1750    22.9520 h4         1 JJO       0.056100
     49 H15          2.1150    -1.7810    27.2180 ha         1 JJO       0.155000
     50 H16          6.9590     2.2120    28.0080 ha         1 JJO       0.109500
     51 H17          8.0500     1.7700    32.1600 ha         1 JJO       0.109000
     52 H18         10.1690     0.6410    31.4850 ha         1 JJO       0.110000
     53 H19         10.6880     0.2980    29.0780 ha         1 JJO       0.109500
     54 H20          7.6820    -2.7560    17.3950 h1         1 JJO       0.098700
     55 H21          7.3500    -1.4310    18.5490 h1         1 JJO       0.098700
     56 H23          9.4370    -1.0960    26.6780 hn         1 JJO       0.323500
     57 H24          7.3510    -2.0820    20.8370 hn         1 JJO       0.170000
     58 Cl1          9.5760    -2.3120    18.8140 cl         1 JJO      -0.258000
     59 C06          4.8020    -2.2470    26.2090 c          1 JJO       0.555600
@<TRIPOS>BOND
     1     1    13 ar  
     2     1    29 ar  
     3     1    35 1   
     4     2    14 ar  
     5     2    15 ar  
     6     2    36 1   
     7     3     5 ar  
     8     3    16 ar  
     9     3    28 1   
    10     4    16 ar  
    11     4    17 ar  
    12     4    30 1   
    13     5    18 ar  
    14     5    37 1   
    15     6    19 2   
    16     6    20 1   
    17     6    38 1   
    18     7     9 1   
    19     7    21 ar  
    20     7    24 ar  
    21     8    21 ar  
    22     8    22 ar  
    23     8    39 1   
    24     9    27 1   
    25     9    40 1   
    26     9    41 1   
    27    10    11 1   
    28    10    27 1   
    29    10    31 2   
    30    11    13 1   
    31    11    28 1   
    32    11    42 1   
    33    12    20 2   
    34    12    33 1   
    35    12    59 1   
    36    13    15 ar  
    37    14    29 ar  
    38    14    43 1   
    39    15    44 1   
    40    16    45 1   
    41    17    18 ar  
    42    17    46 1   
    43    18    47 1   
    44    19    33 1   
    45    19    48 1   
    46    20    49 1   
    47    21    50 1   
    48    22    23 ar  
    49    22    51 1   
    50    23    24 ar  
    51    23    52 1   
    52    24    53 1   
    53    25    26 1   
    54    25    30 1   
    55    25    34 2   
    56    26    54 1   
    57    26    55 1   
    58    26    58 1   
    59    27    56 1   
    60    28    59 1   
    61    30    57 1   
    62    32    59 2   
@<TRIPOS>SUBSTRUCTURE
     1 JJO         1 TEMP              0 ****  ****    0 ROOT
