@<TRIPOS>MOLECULE
JJO
   59    62     1     0     0
SMALL
abcg2


@<TRIPOS>ATOM
      1 C10          9.6840    -3.8770    26.1690 ca         1 JJO       0.341900
      2 C13          8.4620    -5.0380    28.2760 ca         1 JJO      -0.169000
      3 C15          6.1360    -3.1510    24.3880 ca         1 JJO      -0.014000
      4 C17          6.1540    -3.5390    22.0070 ca         1 JJO      -0.014000
      5 C20          5.5190    -4.3750    24.6010 ca         1 JJO      -0.137000
      6 C24          1.9250    -1.5860    25.8620 cc         1 JJO      -0.205000
      7 C26          8.3970     1.2630    28.7070 ca         1 JJO      -0.109300
      8 C28          6.9600     3.1700    29.0690 ca         1 JJO      -0.112000
      9 C01          9.4730     0.5630    27.9140 c3         1 JJO       0.156300
     10 C03          8.1850    -0.7830    26.3500 c          1 JJO       0.615100
     11 C04          7.8850    -2.1920    25.8040 c3         1 JJO       0.085000
     12 C07          4.1380    -1.7780    25.9580 cd         1 JJO       0.057500
     13 C09          8.4550    -3.3590    26.5720 ca         1 JJO      -0.171300
     14 C12          9.6920    -5.4610    27.7960 ca         1 JJO       0.340900
     15 C14          7.8330    -3.9700    27.6570 ca         1 JJO      -0.051000
     16 C16          6.4580    -2.7380    23.1060 ca         1 JJO      -0.157000
     17 C18          5.5110    -4.7610    22.2120 ca         1 JJO      -0.130000
     18 C19          5.2020    -5.1600    23.5040 ca         1 JJO      -0.077000
     19 C23          2.4450    -1.6310    24.6090 cd         1 JJO       0.146900
     20 C25          3.0320    -1.6730    26.7450 cc         1 JJO      -0.109000
     21 C27          7.9470     2.5240    28.3350 ca         1 JJO      -0.082500
     22 C29          6.4060     2.5540    30.1810 ca         1 JJO      -0.103000
     23 C30          6.8490     1.2920    30.5610 ca         1 JJO      -0.112000
     24 C31          7.8380     0.6530    29.8290 ca         1 JJO      -0.082500
     25 C33          6.2590    -3.5500    19.5340 c          1 JJO       0.605100
     26 C34          6.7740    -2.7810    18.3270 c3         1 JJO       0.024600
     27 N02          9.0480    -0.7090    27.3670 ns         1 JJO      -0.490900
     28 N05          6.4700    -2.3220    25.4920 n          1 JJO      -0.219400
     29 N11         10.2960    -4.8930    26.7590 nb         1 JJO      -0.664000
     30 N32          6.5220    -3.0410    20.7530 ns         1 JJO      -0.135000
     31 O08          7.7260     0.1900    25.7790 o          1 JJO      -0.586100
     32 O21          5.8520    -1.4700    27.4910 o          1 JJO      -0.575100
     33 O22          3.7790    -1.7470    24.6570 os         1 JJO      -0.209000
     34 O35          5.6320    -4.5670    19.3110 o          1 JJO      -0.578100
     35 H1          10.1970    -3.4390    25.3170 h4         1 JJO       0.020100
     36 H2           8.0070    -5.5350    29.1210 ha         1 JJO       0.127000
     37 H3           5.2870    -4.7060    25.6060 ha         1 JJO       0.124000
     38 H4           0.8820    -1.4980    26.1220 ha         1 JJO       0.146000
     39 H5           6.6190     4.1520    28.7650 ha         1 JJO       0.110000
     40 H6          10.3350     0.3590    28.5510 h1         1 JJO       0.054700
     41 H7           9.8210     1.2090    27.1070 h1         1 JJO       0.054700
     42 H8           8.4010    -2.1840    24.8380 h1         1 JJO       0.079700
     43 H9          10.2070    -6.2930    28.2630 h4         1 JJO       0.022100
     44 H10          6.8780    -3.6240    28.0260 ha         1 JJO       0.139000
     45 H11          6.9280    -1.7710    22.9630 ha         1 JJO       0.131000
     46 H12          5.2550    -5.4030    21.3860 ha         1 JJO       0.150000
     47 H13          4.7120    -6.1130    23.6530 ha         1 JJO       0.120000
     48 H14          1.9990    -1.5860    23.6280 h4         1 JJO       0.056100
     49 H15          3.0130    -1.6670    27.8230 ha         1 JJO       0.155000
     50 H16          8.3700     3.0060    27.4610 ha         1 JJO       0.109500
     51 H17          5.6340     3.0530    30.7530 ha         1 JJO       0.109000
     52 H18          6.4250     0.8070    31.4310 ha         1 JJO       0.110000
     53 H19          8.1790    -0.3310    30.1310 ha         1 JJO       0.109500
     54 H20          7.3400    -3.4690    17.7040 h1         1 JJO       0.098700
     55 H21          5.9150    -2.4280    17.7570 h1         1 JJO       0.098700
     56 H23          9.3460    -1.5470    27.8380 hn         1 JJO       0.323500
     57 H24          7.0360    -2.1700    20.7750 hn         1 JJO       0.170000
     58 CL1          7.8180    -1.3700    18.6620 cl         1 JJO      -0.258000
     59 C06          5.5440    -1.8520    26.3740 c          1 JJO       0.555600
@<TRIPOS>BOND
     1     1    13 ar  
     2     1    29 ar  
     3     1    35 1   
     4     2    14 ar  
     5     2    15 ar  
     6     2    36 1   
     7     3     5 ar  
     8     3    16 ar  
     9     3    28 1   
    10     4    16 ar  
    11     4    17 ar  
    12     4    30 1   
    13     5    18 ar  
    14     5    37 1   
    15     6    19 2   
    16     6    20 1   
    17     6    38 1   
    18     7     9 1   
    19     7    21 ar  
    20     7    24 ar  
    21     8    21 ar  
    22     8    22 ar  
    23     8    39 1   
    24     9    27 1   
    25     9    40 1   
    26     9    41 1   
    27    10    11 1   
    28    10    27 1   
    29    10    31 2   
    30    11    13 1   
    31    11    28 1   
    32    11    42 1   
    33    12    20 2   
    34    12    33 1   
    35    12    59 1   
    36    13    15 ar  
    37    14    29 ar  
    38    14    43 1   
    39    15    44 1   
    40    16    45 1   
    41    17    18 ar  
    42    17    46 1   
    43    18    47 1   
    44    19    33 1   
    45    19    48 1   
    46    20    49 1   
    47    21    50 1   
    48    22    23 ar  
    49    22    51 1   
    50    23    24 ar  
    51    23    52 1   
    52    24    53 1   
    53    25    26 1   
    54    25    30 1   
    55    25    34 2   
    56    26    54 1   
    57    26    55 1   
    58    26    58 1   
    59    27    56 1   
    60    28    59 1   
    61    30    57 1   
    62    32    59 2   
@<TRIPOS>SUBSTRUCTURE
     1 JJO         1 TEMP              0 ****  ****    0 ROOT
