@<TRIPOS>MOLECULE
JJP
   36    39     1     0     0
SMALL
No Charge or Current Charge


@<TRIPOS>ATOM
      1 C10         -2.5900    -1.7090    -0.2090 ca         1 JJP      -0.066000
      2 C13         -3.2370     1.0530     0.0410 ca         1 JJP      -0.126000
      3 C17          2.5610     0.9980    -0.5220 c6         1 JJP       0.174300
      4 N02         -0.7550     1.2910     0.4750 na         1 JJP      -0.068700
      5 C03          0.3370     0.4030     0.5340 cc         1 JJP      -0.040300
      6 C04          1.8020     0.6870     0.8040 c6         1 JJP       0.001500
      7 C05          2.4160    -0.5960     1.4270 c6         1 JJP      -0.065400
      8 C06          2.2010    -1.7890     0.4530 c6         1 JJP       0.172500
      9 C07          0.6760    -2.1050     0.2970 c6         1 JJP      -0.029200
     10 C08         -0.1950    -0.8570     0.2880 cd         1 JJP      -0.150400
     11 C09         -1.6180    -0.7420     0.0720 ca         1 JJP      -0.085800
     12 C11         -3.9220    -1.2700    -0.3680 ca         1 JJP      -0.142000
     13 C12         -4.2440     0.1040    -0.2450 ca         1 JJP      -0.098000
     14 C14         -1.9210     0.5890     0.1950 ca         1 JJP      -0.045200
     15 N15          2.8740    -1.5130    -0.8510 n7         1 JJP      -0.866400
     16 C16          2.4720    -0.2250    -1.4960 c6         1 JJP       0.125800
     17 O18          2.0600     2.1960    -1.1420 oh         1 JJP      -0.663000
     18 H101        -2.3290    -2.7600    -0.3010 ha         1 JJP       0.110000
     19 H131        -3.4810     2.1080     0.1360 ha         1 JJP       0.112000
     20 H171         3.6220     1.1440    -0.2690 h1         1 JJP       0.042700
     21 H011        -1.4400     3.0190     1.4710 h1         1 JJP       0.048700
     22 H012         0.2570     3.0960     0.9210 h1         1 JJP       0.048700
     23 H013        -1.0690     3.2390    -0.2670 h1         1 JJP       0.048700
     24 H041         1.9220     1.5230     1.5050 hc         1 JJP       0.065700
     25 H052         3.4880    -0.4530     1.6220 hc         1 JJP       0.055700
     26 H051         1.9470    -0.8110     2.3960 hc         1 JJP       0.055700
     27 H061         2.6780    -2.6810     0.8890 h1         1 JJP       0.059700
     28 H072         0.5030    -2.7050    -0.6070 hc         1 JJP       0.046700
     29 H071         0.3660    -2.7410     1.1370 hc         1 JJP       0.046700
     30 H111        -4.7060    -1.9910    -0.5880 ha         1 JJP       0.108000
     31 H121        -5.2740     0.4320    -0.3700 ha         1 JJP       0.107000
     32 H151         2.6890    -2.2890    -1.4990 hn         1 JJP       0.416000
     33 H162         1.4420    -0.3150    -1.8730 h1         1 JJP       0.042200
     34 H161         3.1180    -0.0450    -2.3670 h1         1 JJP       0.042200
     35 H181         2.6440     2.3830    -1.9090 ho         1 JJP       0.445000
     36 C01         -0.7500     2.7500     0.6620 c3         1 JJP       0.069900
@<TRIPOS>BOND
     1     1    11 ar  
     2     1    12 ar  
     3     1    18 1   
     4     2    13 ar  
     5     2    14 ar  
     6     2    19 1   
     7     3     6 1   
     8     3    16 1   
     9     3    17 1   
    10     3    20 1   
    11     4     5 1   
    12     4    14 1   
    13     4    36 1   
    14     5     6 1   
    15     5    10 2   
    16     6     7 1   
    17     6    24 1   
    18     7     8 1   
    19     7    25 1   
    20     7    26 1   
    21     8     9 1   
    22     8    15 1   
    23     8    27 1   
    24     9    10 1   
    25     9    28 1   
    26     9    29 1   
    27    10    11 1   
    28    11    14 ar  
    29    12    13 ar  
    30    12    30 1   
    31    13    31 1   
    32    15    16 1   
    33    15    32 1   
    34    16    33 1   
    35    16    34 1   
    36    17    35 1   
    37    21    36 1   
    38    22    36 1   
    39    23    36 1   
@<TRIPOS>SUBSTRUCTURE
     1 JJP         1 TEMP              0 ****  ****    0 ROOT
