@<TRIPOS>MOLECULE
JJP
   36    39     1     0     0
SMALL
abcg2


@<TRIPOS>ATOM
      1 C10         -2.6040    -1.6960    -0.2090 ca         1 JJP      -0.066000
      2 C13         -3.1990     1.0620     0.0530 ca         1 JJP      -0.126000
      3 C17          2.4920     0.9720    -0.5220 c6         1 JJP       0.174300
      4 N02         -0.7420     1.2690     0.4660 na         1 JJP      -0.068700
      5 C03          0.2930     0.3650     0.5100 cc         1 JJP      -0.040300
      6 C04          1.7300     0.6700     0.7740 c6         1 JJP       0.001500
      7 C05          2.3500    -0.5820     1.4050 c6         1 JJP      -0.065400
      8 C06          2.1930    -1.7550     0.4440 c6         1 JJP       0.172500
      9 C07          0.7000    -2.1110     0.2740 c6         1 JJP      -0.029200
     10 C08         -0.1720    -0.8980     0.2710 cd         1 JJP      -0.150400
     11 C09         -1.5800    -0.7850     0.0670 ca         1 JJP      -0.085800
     12 C11         -3.8990    -1.2290    -0.3500 ca         1 JJP      -0.142000
     13 C12         -4.1920     0.1370    -0.2200 ca         1 JJP      -0.098000
     14 C14         -1.8970     0.5880     0.1950 ca         1 JJP      -0.045200
     15 N15          2.9090    -1.4260    -0.7810 n7         1 JJP      -0.866400
     16 C16          2.4390    -0.2310    -1.4610 c6         1 JJP       0.125800
     17 O18          1.9300     2.1150    -1.1210 oh         1 JJP      -0.663000
     18 H101        -2.3890    -2.7530    -0.3120 ha         1 JJP       0.110000
     19 H131        -3.4330     2.1150     0.1510 ha         1 JJP       0.112000
     20 H171         3.5420     1.1490    -0.2470 h1         1 JJP       0.042700
     21 H011        -1.3740     3.0210     1.4120 h1         1 JJP       0.048700
     22 H012         0.3250     2.9900     0.9450 h1         1 JJP       0.048700
     23 H013        -0.9120     3.2200    -0.2850 h1         1 JJP       0.048700
     24 H041         1.8390     1.5170     1.4580 hc         1 JJP       0.065700
     25 H052         3.4100    -0.4110     1.6080 hc         1 JJP       0.055700
     26 H051         1.8660    -0.8010     2.3590 hc         1 JJP       0.055700
     27 H061         2.6940    -2.6290     0.8680 h1         1 JJP       0.059700
     28 H072         0.5720    -2.6960    -0.6430 hc         1 JJP       0.046700
     29 H071         0.4040    -2.7800     1.0900 hc         1 JJP       0.046700
     30 H111        -4.7000    -1.9250    -0.5630 ha         1 JJP       0.108000
     31 H121        -5.2150     0.4740    -0.3370 ha         1 JJP       0.107000
     32 H151         2.8710    -2.2110    -1.4190 hn         1 JJP       0.416000
     33 H162         1.4190    -0.3180    -1.8590 h1         1 JJP       0.042200
     34 H161         3.0970    -0.0430    -2.3150 h1         1 JJP       0.042200
     35 H181         2.4490     2.3360    -1.9010 ho         1 JJP       0.445000
     36 C01         -0.6740     2.6980     0.6420 c3         1 JJP       0.069900
@<TRIPOS>BOND
     1     1    11 ar  
     2     1    12 ar  
     3     1    18 1   
     4     2    13 ar  
     5     2    14 ar  
     6     2    19 1   
     7     3     6 1   
     8     3    16 1   
     9     3    17 1   
    10     3    20 1   
    11     4     5 1   
    12     4    14 1   
    13     4    36 1   
    14     5     6 1   
    15     5    10 2   
    16     6     7 1   
    17     6    24 1   
    18     7     8 1   
    19     7    25 1   
    20     7    26 1   
    21     8     9 1   
    22     8    15 1   
    23     8    27 1   
    24     9    10 1   
    25     9    28 1   
    26     9    29 1   
    27    10    11 1   
    28    11    14 ar  
    29    12    13 ar  
    30    12    30 1   
    31    13    31 1   
    32    15    16 1   
    33    15    32 1   
    34    16    33 1   
    35    16    34 1   
    36    17    35 1   
    37    21    36 1   
    38    22    36 1   
    39    23    36 1   
@<TRIPOS>SUBSTRUCTURE
     1 JJP         1 TEMP              0 ****  ****    0 ROOT
