@<TRIPOS>MOLECULE
JJQ
   36    38     1     0     0
SMALL
bcc


@<TRIPOS>ATOM
      1 C4           1.4380     1.0170     0.8970 c5         1 JJQ      -0.078400
      2 C5          -0.0850    -0.0790     2.6060 c3         1 JJQ      -0.071100
      3 C6          -1.3830    -0.7850    -0.3320 ca         1 JJQ       0.143600
      4 C7          -1.7340     1.5240     0.2640 ca         1 JJQ      -0.083000
      5 C10          1.4550    -2.2480     1.3310 c3         1 JJQ      -0.097100
      6 C13         -2.8940     1.5330    -0.5140 ca         1 JJQ      -0.172000
      7 C15          1.6170     1.4820    -1.5900 c3         1 JJQ      -0.092600
      8 C1           0.2700     0.0660     1.1290 c5         1 JJQ       0.000300
      9 C11          2.0750     0.5890    -0.4360 c5         1 JJQ       0.208200
     10 C12         -2.5310    -0.7890    -1.1140 ca         1 JJQ      -0.174000
     11 C14          3.6000     0.6180    -0.3480 c3         1 JJQ      -0.092600
     12 C16         -3.2790     0.3840    -1.1940 ca         1 JJQ      -0.097000
     13 C2          -0.9800     0.3720     0.3380 ca         1 JJQ      -0.130300
     14 C3           0.7340    -1.2510     0.4400 c5         1 JJQ       0.437400
     15 N8          -0.5180    -1.8270    -0.0570 nu         1 JJQ      -0.699600
     16 N9           1.5820    -0.7810    -0.6470 n7         1 JJQ      -0.868200
     17 H1           1.1320     2.0650     0.8980 hc         1 JJQ       0.050700
     18 H2           2.1590     0.8960     1.7120 hc         1 JJQ       0.050700
     19 H3           0.7810    -0.3790     3.1980 hc         1 JJQ       0.039700
     20 H4          -0.4430     0.8740     3.0000 hc         1 JJQ       0.039700
     21 H5          -0.8730    -0.8190     2.7590 hc         1 JJQ       0.039700
     22 H6          -1.4250     2.4200     0.7900 ha         1 JJQ       0.127000
     23 H7           0.8190    -2.6150     2.1360 hc         1 JJQ       0.044367
     24 H8           1.7820    -3.1110     0.7460 hc         1 JJQ       0.044367
     25 H9           2.3450    -1.7970     1.7740 hc         1 JJQ       0.044367
     26 H10         -3.4890     2.4330    -0.5920 ha         1 JJQ       0.129000
     27 H11          1.9450     2.5140    -1.4480 hc         1 JJQ       0.038867
     28 H12          2.0290     1.1250    -2.5360 hc         1 JJQ       0.038867
     29 H13          0.5300     1.4810    -1.6750 hc         1 JJQ       0.038867
     30 H14         -2.8400    -1.6780    -1.6500 ha         1 JJQ       0.133000
     31 H15          3.9610     1.6290    -0.1510 hc         1 JJQ       0.038867
     32 H16          3.9590    -0.0270     0.4570 hc         1 JJQ       0.038867
     33 H17          4.0560     0.2840    -1.2830 hc         1 JJQ       0.038867
     34 H18         -4.1760     0.3960    -1.8010 ha         1 JJQ       0.125000
     35 H19         -0.4170    -2.5380    -0.7670 hn         1 JJQ       0.397800
     36 H20          2.3320    -1.4310    -0.8440 hn         1 JJQ       0.367800
@<TRIPOS>BOND
     1     1     8 1   
     2     1     9 1   
     3     1    17 1   
     4     1    18 1   
     5     2     8 1   
     6     2    19 1   
     7     2    20 1   
     8     2    21 1   
     9     3    10 ar  
    10     3    13 ar  
    11     3    15 1   
    12     4     6 ar  
    13     4    13 ar  
    14     4    22 1   
    15     5    14 1   
    16     5    23 1   
    17     5    24 1   
    18     5    25 1   
    19     6    12 ar  
    20     6    26 1   
    21     7     9 1   
    22     7    27 1   
    23     7    28 1   
    24     7    29 1   
    25     8    13 1   
    26     8    14 1   
    27     9    11 1   
    28     9    16 1   
    29    10    12 ar  
    30    10    30 1   
    31    11    31 1   
    32    11    32 1   
    33    11    33 1   
    34    12    34 1   
    35    14    15 1   
    36    14    16 1   
    37    15    35 1   
    38    16    36 1   
@<TRIPOS>SUBSTRUCTURE
     1 JJQ         1 TEMP              0 ****  ****    0 ROOT
