@<TRIPOS>MOLECULE
JJQ
   36    38     1     0     0
SMALL
No Charge or Current Charge


@<TRIPOS>ATOM
      1 C4           1.4280     1.0410     0.8750 c5         1 JJQ      -0.078400
      2 C5           0.0030    -0.0160     2.7630 c3         1 JJQ      -0.071100
      3 C6          -1.2300    -0.6670    -0.4310 ca         1 JJQ       0.282000
      4 C7          -1.7500     1.5000     0.5120 ca         1 JJQ      -0.065000
      5 C10          1.1990    -2.4870     1.4120 c3         1 JJQ      -0.097100
      6 C13         -2.8630     1.5930    -0.3470 ca         1 JJQ      -0.154000
      7 C15          1.3810     1.0890    -1.7450 c3         1 JJQ      -0.092600
      8 C1           0.2990     0.0370     1.2390 c5         1 JJQ       0.000300
      9 C11          2.0370     0.5060    -0.4600 c5         1 JJQ       0.208200
     10 C12         -2.3220    -0.5880    -1.3050 ca         1 JJQ      -0.156000
     11 C14          3.5480     0.8410    -0.5470 c3         1 JJQ      -0.092600
     12 C16         -3.1480     0.5520    -1.2570 ca         1 JJQ      -0.079000
     13 C2          -0.9400     0.3540     0.4430 ca         1 JJQ      -0.130300
     14 C3           0.7870    -1.3040     0.5060 c5         1 JJQ       0.437400
     15 N8          -0.3100    -1.6990    -0.3850 nu         1 JJQ      -0.893200
     16 N9           1.8850    -0.9710    -0.3960 n7         1 JJQ      -0.923400
     17 H1           1.0730     2.0750     0.7930 hc         1 JJQ       0.050700
     18 H2           2.1810     1.0410     1.6710 hc         1 JJQ       0.050700
     19 H3           0.8930    -0.3040     3.3350 hc         1 JJQ       0.039700
     20 H4          -0.3270     0.9610     3.1350 hc         1 JJQ       0.039700
     21 H5          -0.7880    -0.7410     2.9850 hc         1 JJQ       0.039700
     22 H6          -1.5210     2.3030     1.2090 ha         1 JJQ       0.109000
     23 H7           0.3630    -2.8140     2.0410 hc         1 JJQ       0.044367
     24 H8           1.5230    -3.3510     0.8190 hc         1 JJQ       0.044367
     25 H9           2.0270    -2.2080     2.0740 hc         1 JJQ       0.044367
     26 H10         -3.5020     2.4720    -0.3120 ha         1 JJQ       0.111000
     27 H11          1.5100     2.1770    -1.7900 hc         1 JJQ       0.038867
     28 H12          1.8390     0.6680    -2.6480 hc         1 JJQ       0.038867
     29 H13          0.3090     0.8940    -1.8150 hc         1 JJQ       0.038867
     30 H14         -2.5280    -1.3930    -2.0050 ha         1 JJQ       0.115000
     31 H15          3.7130     1.9250    -0.5520 hc         1 JJQ       0.038867
     32 H16          4.1010     0.4290     0.3060 hc         1 JJQ       0.038867
     33 H17          4.0000     0.4320    -1.4600 hc         1 JJQ       0.038867
     34 H18         -4.0050     0.6320    -1.9240 ha         1 JJQ       0.107000
     35 H19         -0.0630    -2.0900    -1.2880 hn         1 JJQ       0.453000
     36 H20          2.7300    -1.3400     0.0440 hn         1 JJQ       0.423000
@<TRIPOS>BOND
     1     1     8 1   
     2     1     9 1   
     3     1    17 1   
     4     1    18 1   
     5     2     8 1   
     6     2    19 1   
     7     2    20 1   
     8     2    21 1   
     9     3    10 ar  
    10     3    13 ar  
    11     3    15 1   
    12     4     6 ar  
    13     4    13 ar  
    14     4    22 1   
    15     5    14 1   
    16     5    23 1   
    17     5    24 1   
    18     5    25 1   
    19     6    12 ar  
    20     6    26 1   
    21     7     9 1   
    22     7    27 1   
    23     7    28 1   
    24     7    29 1   
    25     8    13 1   
    26     8    14 1   
    27     9    11 1   
    28     9    16 1   
    29    10    12 ar  
    30    10    30 1   
    31    11    31 1   
    32    11    32 1   
    33    11    33 1   
    34    12    34 1   
    35    14    15 1   
    36    14    16 1   
    37    15    35 1   
    38    16    36 1   
@<TRIPOS>SUBSTRUCTURE
     1 JJQ         1 TEMP              0 ****  ****    0 ROOT
