@<TRIPOS>MOLECULE
JJR
   40    43     1     0     0
SMALL
abcg2


@<TRIPOS>ATOM
      1 C10         41.9440   129.7750    38.5590 cc         1 JJR       0.455700
      2 C13         39.9090   128.6940    39.3960 cc         1 JJR      -0.278000
      3 C15         33.2560   129.1570    39.6420 cp         1 JJR      -0.072000
      4 C17         35.6780   133.0090    37.1110 ca         1 JJR       0.350300
      5 C18         34.3130   132.8140    37.4020 ca         1 JJR      -0.111000
      6 C19         32.9320   128.8570    40.9690 ca         1 JJR       0.339900
      7 C21         43.3340   130.1510    38.1730 c3         1 JJR      -0.127400
      8 C22         30.7780   128.3020    40.4440 ca         1 JJR       0.332900
      9 C23         36.1700   134.1980    36.3290 c3         1 JJR       0.108300
     10 C24         32.2420   129.0100    38.6930 ca         1 JJR      -0.069000
     11 C25         30.9880   128.5800    39.0990 ca         1 JJR      -0.163000
     12 N1          40.8800   130.4470    38.2210 nd         1 JJR      -0.685000
     13 C2          37.2710   130.1780    38.6830 ca         1 JJR       0.657900
     14 C3          39.7270   129.8490    38.6840 cd         1 JJR       0.529900
     15 C4          36.2380   131.0720    38.2150 ca         1 JJR       0.187000
     16 C5          34.8960   130.7670    38.5330 ca         1 JJR      -0.007000
     17 N6          38.5530   130.5060    38.3630 nu         1 JJR      -0.867800
     18 N7          36.9990   129.1010    39.3900 nb         1 JJR      -0.752000
     19 N8          36.6060   132.1640    37.5160 nb         1 JJR      -0.678000
     20 C9          34.6240   129.5780    39.2830 cp         1 JJR      -0.132000
     21 S11         41.5980   128.3510    39.4870 ss         1 JJR      -0.047400
     22 C12         35.7030   128.8220    39.6710 ca         1 JJR       0.396900
     23 C14         33.9280   131.7030    38.1090 ca         1 JJR      -0.083000
     24 N16         31.7320   128.4350    41.3700 nb         1 JJR      -0.662000
     25 O20         35.0780   135.0260    35.9530 oh         1 JJR      -0.668000
     26 H28         39.1680   128.0680    39.8530 h4         1 JJR       0.188000
     27 H30         33.5870   133.5410    37.0720 ha         1 JJR       0.146000
     28 H31         33.6870   128.9750    41.7400 h4         1 JJR       0.022100
     29 H35         43.3790   131.2200    37.9690 hc         1 JJR       0.059367
     30 H33         44.0450   129.9060    38.9620 hc         1 JJR       0.059367
     31 H34         43.6380   129.6150    37.2700 hc         1 JJR       0.059367
     32 H36         29.8090   127.9590    40.7910 h4         1 JJR       0.021100
     33 H38         36.8870   134.7470    36.9500 h1         1 JJR       0.046700
     34 H37         36.7090   133.8320    35.4480 h1         1 JJR       0.046700
     35 H39         32.4390   129.2130    37.6480 ha         1 JJR       0.123000
     36 H40         30.1850   128.4520    38.3850 ha         1 JJR       0.124000
     37 H26         38.6530   131.3550    37.8240 hn         1 JJR       0.540000
     38 H27         35.5400   127.9100    40.2360 h4         1 JJR       0.023100
     39 H29         32.8850   131.5500    38.3490 ha         1 JJR       0.131000
     40 H32         35.4300   135.7890    35.4790 ho         1 JJR       0.453000
@<TRIPOS>BOND
     1     1     7 1   
     2     1    12 2   
     3     1    21 1   
     4     2    14 2   
     5     2    21 1   
     6     2    26 1   
     7     3     6 ar  
     8     3    10 ar  
     9     3    20 1   
    10     4     5 ar  
    11     4     9 1   
    12     4    19 ar  
    13     5    23 ar  
    14     5    27 1   
    15     6    24 ar  
    16     6    28 1   
    17     7    29 1   
    18     7    30 1   
    19     7    31 1   
    20     8    11 ar  
    21     8    24 ar  
    22     8    32 1   
    23     9    25 1   
    24     9    33 1   
    25     9    34 1   
    26    10    11 ar  
    27    10    35 1   
    28    11    36 1   
    29    12    14 1   
    30    13    15 ar  
    31    13    17 1   
    32    13    18 ar  
    33    14    17 1   
    34    15    16 ar  
    35    15    19 ar  
    36    16    20 ar  
    37    16    23 ar  
    38    17    37 1   
    39    18    22 ar  
    40    20    22 ar  
    41    22    38 1   
    42    23    39 1   
    43    25    40 1   
@<TRIPOS>SUBSTRUCTURE
     1 JJR         1 TEMP              0 ****  ****    0 ROOT
