@<TRIPOS>MOLECULE
JJR
   40    43     1     0     0
SMALL
No Charge or Current Charge


@<TRIPOS>ATOM
      1 C10         41.9300   129.7240    38.4420 cc         1 JJR       0.455700
      2 C13         39.9950   128.5650    39.3030 cc         1 JJR      -0.278000
      3 C15         33.2430   129.1790    39.6690 cp         1 JJR      -0.072000
      4 C17         35.6380   133.1230    37.2520 ca         1 JJR       0.350300
      5 C18         34.2870   132.8950    37.5610 ca         1 JJR      -0.111000
      6 C19         32.8860   128.8790    41.0100 ca         1 JJR       0.339900
      7 C21         43.3040   130.1660    38.0370 c3         1 JJR      -0.127400
      8 C22         30.7100   128.3340    40.4310 ca         1 JJR       0.332900
      9 C23         36.0660   134.3940    36.5030 c3         1 JJR       0.108300
     10 C24         32.2430   129.0120    38.6810 ca         1 JJR      -0.069000
     11 C25         30.9630   128.5900    39.0730 ca         1 JJR      -0.163000
     12 N1          40.8380   130.4250    38.1690 nd         1 JJR      -0.685000
     13 C2          37.2680   130.1640    38.7110 ca         1 JJR       0.657900
     14 C3          39.7620   129.7520    38.6650 cd         1 JJR       0.529900
     15 C4          36.2780   131.1100    38.2890 ca         1 JJR       0.187000
     16 C5          34.9280   130.8070    38.6140 ca         1 JJR      -0.007000
     17 N6          38.6060   130.3860    38.4370 nu         1 JJR      -0.867800
     18 N7          37.0090   129.0340    39.3870 nb         1 JJR      -0.752000
     19 N8          36.6160   132.2550    37.6120 nb         1 JJR      -0.678000
     20 C9          34.6330   129.6010    39.3120 cp         1 JJR      -0.132000
     21 S11         41.6990   128.2200    39.3060 ss         1 JJR      -0.047400
     22 C12         35.7200   128.7700    39.6770 ca         1 JJR       0.396900
     23 C14         33.9230   131.7290    38.2510 ca         1 JJR      -0.083000
     24 N16         31.6520   128.4710    41.3920 nb         1 JJR      -0.662000
     25 O20         35.5040   134.4720    35.1740 oh         1 JJR      -0.668000
     26 H28         39.2940   127.8830    39.7610 h4         1 JJR       0.188000
     27 H30         33.5330   133.6200    37.2660 ha         1 JJR       0.146000
     28 H31         33.6230   128.9770    41.8060 h4         1 JJR       0.022100
     29 H35         43.3260   131.2390    37.8140 hc         1 JJR       0.059367
     30 H33         44.0260   129.9720    38.8380 hc         1 JJR       0.059367
     31 H34         43.6330   129.6240    37.1430 hc         1 JJR       0.059367
     32 H36         29.7240   128.0040    40.7600 h4         1 JJR       0.021100
     33 H38         35.7500   135.2630    37.0970 h1         1 JJR       0.046700
     34 H37         37.1620   134.4260    36.4490 h1         1 JJR       0.046700
     35 H39         32.4630   129.2030    37.6330 ha         1 JJR       0.123000
     36 H40         30.1730   128.4570    38.3390 ha         1 JJR       0.124000
     37 H26         38.7440   131.2540    37.9330 hn         1 JJR       0.540000
     38 H27         35.5380   127.8400    40.2150 h4         1 JJR       0.023100
     39 H29         32.8790   131.5640    38.5010 ha         1 JJR       0.131000
     40 H32         35.8500   135.2950    34.7580 ho         1 JJR       0.453000
@<TRIPOS>BOND
     1     1     7 1   
     2     1    12 2   
     3     1    21 1   
     4     2    14 2   
     5     2    21 1   
     6     2    26 1   
     7     3     6 ar  
     8     3    10 ar  
     9     3    20 1   
    10     4     5 ar  
    11     4     9 1   
    12     4    19 ar  
    13     5    23 ar  
    14     5    27 1   
    15     6    24 ar  
    16     6    28 1   
    17     7    29 1   
    18     7    30 1   
    19     7    31 1   
    20     8    11 ar  
    21     8    24 ar  
    22     8    32 1   
    23     9    25 1   
    24     9    33 1   
    25     9    34 1   
    26    10    11 ar  
    27    10    35 1   
    28    11    36 1   
    29    12    14 1   
    30    13    15 ar  
    31    13    17 1   
    32    13    18 ar  
    33    14    17 1   
    34    15    16 ar  
    35    15    19 ar  
    36    16    20 ar  
    37    16    23 ar  
    38    17    37 1   
    39    18    22 ar  
    40    20    22 ar  
    41    22    38 1   
    42    23    39 1   
    43    25    40 1   
@<TRIPOS>SUBSTRUCTURE
     1 JJR         1 TEMP              0 ****  ****    0 ROOT
