@<TRIPOS>MOLECULE
JJS
   44    46     1     0     0
SMALL
abcg2


@<TRIPOS>ATOM
      1 F25         -4.9290     2.4840    -0.7430 f          1 JJS      -0.110333
      2 C24         -3.6400     2.1420    -0.7030 c3         1 JJS       0.359300
      3 F27         -3.1890     2.1490    -1.9650 f          1 JJS      -0.110333
      4 F26         -2.9910     3.1260    -0.0630 f          1 JJS      -0.110333
      5 C20         -3.4140     0.8160    -0.0460 ca         1 JJS      -0.192300
      6 C21         -4.4540     0.1070     0.5350 ca         1 JJS      -0.051000
      7 C22         -4.1960    -1.1170     1.1410 ca         1 JJS      -0.111000
      8 C23         -2.9120    -1.6320     1.1660 ca         1 JJS      -0.057000
      9 C19         -2.1180     0.3090    -0.0150 ca         1 JJS      -0.059000
     10 C18         -1.8750    -0.9130     0.5840 ca         1 JJS      -0.057000
     11 N4          -0.5440    -1.4230     0.5780 n          1 JJS      -0.177600
     12 C3           0.1110    -1.4650     1.8120 c          1 JJS       0.615000
     13 O29         -0.4780    -1.2180     2.8460 o          1 JJS      -0.551000
     14 C5           0.0220    -1.9180    -0.5940 c2         1 JJS       0.170400
     15 C28         -0.9440    -2.2520    -1.6870 c3         1 JJS      -0.077900
     16 C6           1.3680    -2.0840    -0.6610 ce         1 JJS      -0.337400
     17 C15          2.0700    -2.5470    -1.8690 c          1 JJS       0.602300
     18 O16          1.5260    -2.6430    -2.9550 o          1 JJS      -0.538100
     19 C17          3.5340    -2.8860    -1.7300 c3         1 JJS      -0.196100
     20 C1           2.1950    -1.7160     0.5430 c6         1 JJS       0.232200
     21 N2           1.3970    -1.8460     1.7420 ns         1 JJS      -0.492900
     22 C7           2.8130    -0.3300     0.4520 ca         1 JJS      -0.164300
     23 C8           2.1950     0.7170    -0.2330 ca         1 JJS       0.364900
     24 N9           2.6790     1.9450    -0.2850 nb         1 JJS      -0.631000
     25 C10          3.8240     2.1810     0.3470 ca         1 JJS       0.442000
     26 C13          4.3210     3.5280     0.2660 cg         1 JJS       0.216000
     27 N14          4.7240     4.6040     0.2060 n1         1 JJS      -0.422000
     28 C11          4.5370     1.2220     1.0510 ca         1 JJS      -0.123000
     29 C12          4.0090    -0.0570     1.1000 ca         1 JJS      -0.070000
     30 H21         -5.4660     0.4860     0.5210 ha         1 JJS       0.136000
     31 H19         -1.2950     0.8560    -0.4590 ha         1 JJS       0.137000
     32 H22         -5.0080    -1.6720     1.5900 ha         1 JJS       0.128000
     33 H23         -2.7180    -2.5940     1.6190 ha         1 JJS       0.135000
     34 H2           1.8900    -1.8840     2.6230 hn         1 JJS       0.333500
     35 H281        -1.9350    -2.4550    -1.2900 hc         1 JJS       0.073367
     36 H282        -1.0340    -1.4310    -2.4000 hc         1 JJS       0.073367
     37 H283        -0.6140    -3.1240    -2.2410 hc         1 JJS       0.073367
     38 H1           3.0120    -2.4300     0.6550 h1         1 JJS       0.071700
     39 H171         3.6940    -3.6650    -0.9830 hc         1 JJS       0.060700
     40 H172         3.9250    -3.2310    -2.6840 hc         1 JJS       0.060700
     41 H173         4.1180    -2.0170    -1.4180 hc         1 JJS       0.060700
     42 H8           1.2730     0.5500    -0.7770 h4         1 JJS       0.033100
     43 H12          4.5330    -0.8370     1.6380 ha         1 JJS       0.123000
     44 H11          5.4700     1.4680     1.5380 ha         1 JJS       0.141000
@<TRIPOS>BOND
     1     1     2 1   
     2     2     3 1   
     3     2     4 1   
     4     2     5 1   
     5     5     6 ar  
     6     5     9 ar  
     7     6     7 ar  
     8     6    30 1   
     9     7     8 ar  
    10     7    32 1   
    11     8    10 ar  
    12     8    33 1   
    13     9    10 ar  
    14     9    31 1   
    15    10    11 1   
    16    11    12 1   
    17    11    14 1   
    18    12    13 2   
    19    12    21 1   
    20    14    15 1   
    21    14    16 2   
    22    15    35 1   
    23    15    36 1   
    24    15    37 1   
    25    16    17 1   
    26    16    20 1   
    27    17    18 2   
    28    17    19 1   
    29    19    39 1   
    30    19    40 1   
    31    19    41 1   
    32    20    21 1   
    33    20    22 1   
    34    20    38 1   
    35    21    34 1   
    36    22    23 ar  
    37    22    29 ar  
    38    23    24 ar  
    39    23    42 1   
    40    24    25 ar  
    41    25    26 1   
    42    25    28 ar  
    43    26    27 3   
    44    28    29 ar  
    45    28    44 1   
    46    29    43 1   
@<TRIPOS>SUBSTRUCTURE
     1 JJS         1 TEMP              0 ****  ****    0 ROOT
