@<TRIPOS>MOLECULE
JJS
   44    46     1     0     0
SMALL
No Charge or Current Charge


@<TRIPOS>ATOM
      1 F25         -5.4550     1.5360    -1.4490 f          1 JJS      -0.110333
      2 C24         -4.1590     1.6360    -1.0750 c3         1 JJS       0.359300
      3 F27         -3.4360     1.7370    -2.2150 f          1 JJS      -0.110333
      4 F26         -4.0260     2.8100    -0.4180 f          1 JJS      -0.110333
      5 C20         -3.7040     0.4580    -0.2060 ca         1 JJS      -0.192300
      6 C21         -4.6330    -0.2780     0.5610 ca         1 JJS      -0.051000
      7 C22         -4.2030    -1.3510     1.3600 ca         1 JJS      -0.111000
      8 C23         -2.8440    -1.6980     1.4060 ca         1 JJS      -0.057000
      9 C19         -2.3370     0.1080    -0.1440 ca         1 JJS      -0.059000
     10 C18         -1.9020    -0.9670     0.6560 ca         1 JJS      -0.057000
     11 N4          -0.5040    -1.3170     0.6840 n          1 JJS      -0.177600
     12 C3           0.1950    -1.3070     1.9200 c          1 JJS       0.615000
     13 O29         -0.3570    -1.1550     2.9990 o          1 JJS      -0.551000
     14 C5           0.1980    -1.6880    -0.4960 c2         1 JJS       0.170400
     15 C28         -0.6210    -2.0730    -1.7250 c3         1 JJS      -0.077900
     16 C6           1.5500    -1.7350    -0.5190 ce         1 JJS      -0.337400
     17 C15          2.3270    -2.1220    -1.7240 c          1 JJS       0.602300
     18 O16          2.5310    -1.3300    -2.6320 o          1 JJS      -0.538100
     19 C17          2.7740    -3.5770    -1.8140 c3         1 JJS      -0.196100
     20 C1           2.3870    -1.3980     0.6950 c6         1 JJS       0.232200
     21 N2           1.5580    -1.4390     1.8840 ns         1 JJS      -0.492900
     22 C7           3.0340    -0.0220     0.5820 ca         1 JJS      -0.164300
     23 C8           2.2640     1.1100     0.2450 ca         1 JJS       0.364900
     24 N9           2.7850     2.3530     0.1280 nb         1 JJS      -0.631000
     25 C10          4.1170     2.5090     0.3460 ca         1 JJS       0.442000
     26 C13          4.6590     3.8430     0.2170 cg         1 JJS       0.216000
     27 N14          5.1090     4.9190     0.1150 n1         1 JJS      -0.422000
     28 C11          4.9580     1.4320     0.6850 ca         1 JJS      -0.123000
     29 C12          4.4130     0.1440     0.8070 ca         1 JJS      -0.070000
     30 H21         -5.6920    -0.0230     0.5450 ha         1 JJS       0.136000
     31 H19         -1.6050     0.6760    -0.7150 ha         1 JJS       0.137000
     32 H22         -4.9260    -1.9150     1.9440 ha         1 JJS       0.128000
     33 H23         -2.5240    -2.5360     2.0210 ha         1 JJS       0.135000
     34 H2           2.0180    -1.4360     2.7850 hn         1 JJS       0.333500
     35 H281        -1.6120    -2.4570    -1.4590 hc         1 JJS       0.073367
     36 H282        -0.7620    -1.2090    -2.3850 hc         1 JJS       0.073367
     37 H283        -0.1420    -2.8640    -2.3110 hc         1 JJS       0.073367
     38 H1           3.1740    -2.1590     0.8150 h1         1 JJS       0.071700
     39 H171         1.9320    -4.2290    -1.5560 hc         1 JJS       0.060700
     40 H172         3.2080    -3.8270    -2.7890 hc         1 JJS       0.060700
     41 H173         3.4790    -3.7790    -1.0000 hc         1 JJS       0.060700
     42 H8           1.1940     1.0240     0.0640 h4         1 JJS       0.033100
     43 H12          5.0480    -0.7010     1.0690 ha         1 JJS       0.123000
     44 H11          6.0190     1.5980     0.8520 ha         1 JJS       0.141000
@<TRIPOS>BOND
     1     1     2 1   
     2     2     3 1   
     3     2     4 1   
     4     2     5 1   
     5     5     6 ar  
     6     5     9 ar  
     7     6     7 ar  
     8     6    30 1   
     9     7     8 ar  
    10     7    32 1   
    11     8    10 ar  
    12     8    33 1   
    13     9    10 ar  
    14     9    31 1   
    15    10    11 1   
    16    11    12 1   
    17    11    14 1   
    18    12    13 2   
    19    12    21 1   
    20    14    15 1   
    21    14    16 2   
    22    15    35 1   
    23    15    36 1   
    24    15    37 1   
    25    16    17 1   
    26    16    20 1   
    27    17    18 2   
    28    17    19 1   
    29    19    39 1   
    30    19    40 1   
    31    19    41 1   
    32    20    21 1   
    33    20    22 1   
    34    20    38 1   
    35    21    34 1   
    36    22    23 ar  
    37    22    29 ar  
    38    23    24 ar  
    39    23    42 1   
    40    24    25 ar  
    41    25    26 1   
    42    25    28 ar  
    43    26    27 3   
    44    28    29 ar  
    45    28    44 1   
    46    29    43 1   
@<TRIPOS>SUBSTRUCTURE
     1 JJS         1 TEMP              0 ****  ****    0 ROOT
