@<TRIPOS>MOLECULE
JJV
   47    49     1     0     0
SMALL
abcg2


@<TRIPOS>ATOM
      1 C28          3.9720     2.4420    -2.1170 c3         1 JJV      -0.339100
      2 S26          4.3080     2.0170    -0.4250 sy         1 JJV       1.047500
      3 O27          5.7520     2.0670    -0.2220 o          1 JJV      -0.509000
      4 O29          3.4590     2.8210     0.4490 o          1 JJV      -0.509000
      5 C4           3.8080     0.2970    -0.3120 ca         1 JJV      -0.238500
      6 C2           4.8450    -0.6240    -0.2770 ca         1 JJV       0.006000
      7 C1           4.5530    -1.9790    -0.1850 ca         1 JJV      -0.019000
      8 C31          5.6190    -2.9280    -0.1450 cg         1 JJV       0.313000
      9 N30          6.4760    -3.6960    -0.1200 n1         1 JJV      -0.428000
     10 C3           3.2300    -2.4100    -0.1290 ca         1 JJV      -0.027000
     11 C5           2.2140    -1.4780    -0.1670 ca         1 JJV      -0.113000
     12 C6           2.4730    -0.1130    -0.2570 ca         1 JJV      -0.004300
     13 C22          1.2620     0.8190    -0.2730 c6         1 JJV       0.235200
     14 C9           0.5430     0.7360     1.0480 ce         1 JJV      -0.137900
     15 C11         -0.7020     0.2240     1.1720 c2         1 JJV       0.137400
     16 C25         -1.4070     0.1010     2.4790 c3         1 JJV      -0.075900
     17 C24          1.2570     1.1770     2.1850 cg         1 JJV       0.293700
     18 N32          1.8640     1.5310     3.1010 n1         1 JJV      -0.433000
     19 N7           0.3570     0.4590    -1.3370 ns         1 JJV      -0.514900
     20 C8          -0.8830    -0.0520    -1.2410 c          1 JJV       0.625000
     21 O23         -1.5570    -0.3590    -2.2020 o          1 JJV      -0.548000
     22 N10         -1.3820    -0.2090     0.0540 n          1 JJV      -0.168600
     23 C12         -2.6840    -0.7870     0.1610 ca         1 JJV      -0.057000
     24 C13         -3.8000     0.0320     0.1200 ca         1 JJV      -0.045000
     25 C14         -2.8120    -2.1580     0.3100 ca         1 JJV      -0.067000
     26 C16         -4.0760    -2.7170     0.4270 ca         1 JJV      -0.110000
     27 C17         -5.2010    -1.9090     0.3950 ca         1 JJV      -0.050000
     28 C15         -5.0610    -0.5330     0.2430 ca         1 JJV      -0.191300
     29 C18         -6.2880     0.3220     0.1650 c3         1 JJV       0.359300
     30 F20         -6.8580     0.2490    -1.0470 f          1 JJV      -0.110333
     31 F21         -7.2170    -0.0580     1.0490 f          1 JJV      -0.110333
     32 F19         -6.0280     1.6120     0.3950 f          1 JJV      -0.110333
     33 H281         4.5590     1.8010    -2.7700 h1         1 JJV       0.104700
     34 H282         2.9110     2.3330    -2.3330 h1         1 JJV       0.104700
     35 H283         4.2650     3.4830    -2.2470 h1         1 JJV       0.104700
     36 H2           5.8750    -0.2990    -0.3240 ha         1 JJV       0.160000
     37 H3           3.0010    -3.4630    -0.0540 ha         1 JJV       0.133000
     38 H5           1.1910    -1.8280    -0.1170 ha         1 JJV       0.126000
     39 H22          1.5700     1.8510    -0.4320 h1         1 JJV       0.083700
     40 H7           0.6820     0.6030    -2.2810 hn         1 JJV       0.337500
     41 H251        -0.7760     0.4180     3.3030 hc         1 JJV       0.069367
     42 H252        -2.3090     0.7140     2.4880 hc         1 JJV       0.069367
     43 H253        -1.7110    -0.9300     2.6620 hc         1 JJV       0.069367
     44 H13         -3.6680     1.0990     0.0000 ha         1 JJV       0.144000
     45 H14         -1.9310    -2.7850     0.3380 ha         1 JJV       0.128000
     46 H16         -4.1840    -3.7860     0.5450 ha         1 JJV       0.129000
     47 H17         -6.1800    -2.3610     0.4910 ha         1 JJV       0.135000
@<TRIPOS>BOND
     1     1     2 1   
     2     1    33 1   
     3     1    34 1   
     4     1    35 1   
     5     2     3 2   
     6     2     4 2   
     7     2     5 1   
     8     5     6 ar  
     9     5    12 ar  
    10     6     7 ar  
    11     6    36 1   
    12     7     8 1   
    13     7    10 ar  
    14     8     9 3   
    15    10    11 ar  
    16    10    37 1   
    17    11    12 ar  
    18    11    38 1   
    19    12    13 1   
    20    13    14 1   
    21    13    19 1   
    22    13    39 1   
    23    14    15 2   
    24    14    17 1   
    25    15    16 1   
    26    15    22 1   
    27    16    41 1   
    28    16    42 1   
    29    16    43 1   
    30    17    18 3   
    31    19    20 1   
    32    19    40 1   
    33    20    21 2   
    34    20    22 1   
    35    22    23 1   
    36    23    24 ar  
    37    23    25 ar  
    38    24    28 ar  
    39    24    44 1   
    40    25    26 ar  
    41    25    45 1   
    42    26    27 ar  
    43    26    46 1   
    44    27    28 ar  
    45    27    47 1   
    46    28    29 1   
    47    29    30 1   
    48    29    31 1   
    49    29    32 1   
@<TRIPOS>SUBSTRUCTURE
     1 JJV         1 TEMP              0 ****  ****    0 ROOT
