@<TRIPOS>MOLECULE
JJV
   47    49     1     0     0
SMALL
No Charge or Current Charge


@<TRIPOS>ATOM
      1 C28          3.9250     2.5660    -1.9700 c3         1 JJV      -0.339100
      2 S26          4.5510     1.8640    -0.4420 sy         1 JJV       1.047500
      3 O27          6.0060     1.7540    -0.5980 o          1 JJV      -0.509000
      4 O29          3.9740     2.6600     0.6470 o          1 JJV      -0.509000
      5 C4           3.8260     0.1940    -0.4060 ca         1 JJV      -0.238500
      6 C2           4.7100    -0.8940    -0.6120 ca         1 JJV       0.006000
      7 C1           4.2460    -2.2210    -0.5930 ca         1 JJV      -0.019000
      8 C31          5.1600    -3.3090    -0.8010 cg         1 JJV       0.313000
      9 N30          5.9110    -4.1870    -0.9710 n1         1 JJV      -0.428000
     10 C3           2.8870    -2.4770    -0.3710 ca         1 JJV      -0.027000
     11 C5           1.9970    -1.4120    -0.1730 ca         1 JJV      -0.113000
     12 C6           2.4370    -0.0680    -0.1890 ca         1 JJV      -0.004300
     13 C22          1.3580     1.0220     0.0250 c6         1 JJV       0.235200
     14 C9           0.6410     0.8630     1.3580 ce         1 JJV      -0.137900
     15 C11         -0.6450     0.4300     1.4290 c2         1 JJV       0.137400
     16 C25         -1.3760     0.3300     2.7720 c3         1 JJV      -0.075900
     17 C24          1.4090     1.2010     2.5210 cg         1 JJV       0.293700
     18 N32          2.0050     1.4480     3.4920 n1         1 JJV      -0.433000
     19 N7           0.3970     0.9740    -1.0720 ns         1 JJV      -0.514900
     20 C8          -0.8710     0.4640    -1.0150 c          1 JJV       0.625000
     21 O23         -1.4990     0.3280    -2.0530 o          1 JJV      -0.548000
     22 N10         -1.3770     0.0830     0.2550 n          1 JJV      -0.168600
     23 C12         -2.6140    -0.6540     0.3230 ca         1 JJV      -0.057000
     24 C13         -3.8110    -0.0990    -0.1750 ca         1 JJV      -0.045000
     25 C14         -2.6330    -1.9370     0.9020 ca         1 JJV      -0.067000
     26 C16         -3.8350    -2.6580     0.9770 ca         1 JJV      -0.110000
     27 C17         -5.0260    -2.1030     0.4790 ca         1 JJV      -0.050000
     28 C15         -5.0260    -0.8130    -0.0950 ca         1 JJV      -0.191300
     29 C18         -6.3190    -0.2020    -0.6480 c3         1 JJV       0.359300
     30 F20         -6.4530    -0.4510    -1.9700 f          1 JJV      -0.110333
     31 F21         -7.4240    -0.6900    -0.0400 f          1 JJV      -0.110333
     32 F19         -6.3560     1.1420    -0.4930 f          1 JJV      -0.110333
     33 H281         4.2430     1.9200    -2.7960 h1         1 JJV       0.104700
     34 H282         2.8340     2.6190    -1.9210 h1         1 JJV       0.104700
     35 H283         4.3510     3.5680    -2.0810 h1         1 JJV       0.104700
     36 H2           5.7720    -0.7200    -0.7850 ha         1 JJV       0.160000
     37 H3           2.5150    -3.5000    -0.3540 ha         1 JJV       0.133000
     38 H5           0.9470    -1.6410    -0.0070 ha         1 JJV       0.126000
     39 H22          1.7850     2.0290    -0.0020 h1         1 JJV       0.083700
     40 H7           0.7180     1.2230    -1.9990 hn         1 JJV       0.337500
     41 H251        -1.1150     1.1520     3.4470 hc         1 JJV       0.069367
     42 H252        -2.4660     0.3780     2.6640 hc         1 JJV       0.069367
     43 H253        -1.1320    -0.6110     3.2800 hc         1 JJV       0.069367
     44 H13         -3.7920     0.8940    -0.6210 ha         1 JJV       0.144000
     45 H14         -1.7160    -2.3780     1.2860 ha         1 JJV       0.128000
     46 H16         -3.8440    -3.6520     1.4190 ha         1 JJV       0.129000
     47 H17         -5.9450    -2.6820     0.5410 ha         1 JJV       0.135000
@<TRIPOS>BOND
     1     1     2 1   
     2     1    33 1   
     3     1    34 1   
     4     1    35 1   
     5     2     3 2   
     6     2     4 2   
     7     2     5 1   
     8     5     6 ar  
     9     5    12 ar  
    10     6     7 ar  
    11     6    36 1   
    12     7     8 1   
    13     7    10 ar  
    14     8     9 3   
    15    10    11 ar  
    16    10    37 1   
    17    11    12 ar  
    18    11    38 1   
    19    12    13 1   
    20    13    14 1   
    21    13    19 1   
    22    13    39 1   
    23    14    15 2   
    24    14    17 1   
    25    15    16 1   
    26    15    22 1   
    27    16    41 1   
    28    16    42 1   
    29    16    43 1   
    30    17    18 3   
    31    19    20 1   
    32    19    40 1   
    33    20    21 2   
    34    20    22 1   
    35    22    23 1   
    36    23    24 ar  
    37    23    25 ar  
    38    24    28 ar  
    39    24    44 1   
    40    25    26 ar  
    41    25    45 1   
    42    26    27 ar  
    43    26    46 1   
    44    27    28 ar  
    45    27    47 1   
    46    28    29 1   
    47    29    30 1   
    48    29    31 1   
    49    29    32 1   
@<TRIPOS>SUBSTRUCTURE
     1 JJV         1 TEMP              0 ****  ****    0 ROOT
