@<TRIPOS>MOLECULE
JJW
   49    51     1     0     0
SMALL
No Charge or Current Charge


@<TRIPOS>ATOM
      1 C10         35.2090    -3.4720    55.5810 ca         1 JJW      -0.171500
      2 C13         35.8860    -6.9680    54.4750 c3         1 JJW       0.159600
      3 C15         35.2640    -9.7720    52.0420 c3         1 JJW       0.161600
      4 C17         38.5020    -1.3260    62.6340 c5         1 JJW       0.099500
      5 C11         35.7800    -4.7520    55.5600 ca         1 JJW       0.145100
      6 C12         36.7480    -5.0940    56.5270 ca         1 JJW      -0.171500
      7 C14         35.1990    -7.6580    53.2800 c3         1 JJW       0.154600
      8 C16         33.7790   -10.1420    52.2380 c3         1 JJW      -0.127100
      9 C01         38.6980    -0.4560    61.3650 c3         1 JJW       0.088600
     10 N01         37.1340    -1.2370    63.2130 n7         1 JJW      -0.813400
     11 O01         40.7810    -1.1660    63.6460 oh         1 JJW      -0.645000
     12 C02         35.5940    -2.5330    56.5530 ca         1 JJW      -0.056500
     13 N02         37.8810    -0.8490    60.2050 na         1 JJW       0.123800
     14 O02         39.3680    -3.1290    64.8970 oh         1 JJW      -0.661000
     15 C03         37.2690    -1.7930    64.5960 c5         1 JJW       0.133800
     16 N03         37.0080     0.0270    59.6310 nc         1 JJW      -0.202800
     17 O03         35.3620    -5.6300    54.5820 os         1 JJW      -0.358100
     18 C04         38.8020    -1.8040    64.9550 c5         1 JJW       0.101300
     19 N04         36.4550    -0.6020    58.6290 nd         1 JJW      -0.357000
     20 O04         35.7270    -8.9990    53.1690 os         1 JJW      -0.471000
     21 C05         39.3920    -0.8960    63.8350 c5         1 JJW       0.105300
     22 C06         37.1350    -4.1560    57.5010 ca         1 JJW      -0.056500
     23 C07         36.5630    -2.8650    57.5260 ca         1 JJW      -0.141500
     24 C08         36.9720    -1.8810    58.5510 cd         1 JJW       0.270500
     25 C09         37.8900    -2.0550    59.5490 cc         1 JJW      -0.194000
     26 H1          34.4630    -3.2040    54.8380 ha         1 JJW       0.123000
     27 H2          35.6810    -7.5390    55.3900 h1         1 JJW       0.047700
     28 H3          36.9710    -6.9470    54.3070 h1         1 JJW       0.047700
     29 H4          35.8480   -10.7000    51.9670 h1         1 JJW       0.045200
     30 H5          35.3930    -9.2200    51.1010 h1         1 JJW       0.045200
     31 H6          38.7270    -2.3680    62.3600 h1         1 JJW       0.084700
     32 H7          37.2100    -6.0760    56.5400 ha         1 JJW       0.123000
     33 H8          35.4010    -7.0850    52.3650 h1         1 JJW       0.038700
     34 H9          34.1160    -7.6710    53.4530 h1         1 JJW       0.038700
     35 H10         33.4690   -10.8610    51.4720 hc         1 JJW       0.043033
     36 H11         33.6200   -10.6010    53.2210 hc         1 JJW       0.043033
     37 H12         33.1330    -9.2610    52.1490 hc         1 JJW       0.043033
     38 H13         39.7500    -0.5120    61.0630 h1         1 JJW       0.079200
     39 H14         38.4840     0.5920    61.6110 h1         1 JJW       0.079200
     40 H15         36.8700    -0.2450    63.2860 hn         1 JJW       0.410000
     41 H17         40.8830    -2.0870    63.9890 ho         1 JJW       0.456000
     42 H18         35.1340    -1.5470    56.5450 ha         1 JJW       0.121000
     43 H19         38.9560    -3.6540    65.6210 ho         1 JJW       0.451000
     44 H20         36.6980    -1.1860    65.3140 h1         1 JJW       0.074700
     45 H21         36.8570    -2.8110    64.6430 h1         1 JJW       0.074700
     46 H22         38.9730    -1.3630    65.9470 h1         1 JJW       0.053700
     47 H23         39.2340     0.1670    64.0740 h1         1 JJW       0.074700
     48 H24         37.8830    -4.4430    58.2360 ha         1 JJW       0.121000
     49 H25         38.5130    -2.8910    59.8320 h4         1 JJW       0.164000
@<TRIPOS>BOND
     1     1     5 ar  
     2     1    12 ar  
     3     1    26 1   
     4     2     7 1   
     5     2    17 1   
     6     2    27 1   
     7     2    28 1   
     8     3     8 1   
     9     3    20 1   
    10     3    29 1   
    11     3    30 1   
    12     4     9 1   
    13     4    10 1   
    14     4    21 1   
    15     4    31 1   
    16     5     6 ar  
    17     5    17 1   
    18     6    22 ar  
    19     6    32 1   
    20     7    20 1   
    21     7    33 1   
    22     7    34 1   
    23     8    35 1   
    24     8    36 1   
    25     8    37 1   
    26     9    13 1   
    27     9    38 1   
    28     9    39 1   
    29    10    15 1   
    30    10    40 1   
    31    11    21 1   
    32    11    41 1   
    33    12    23 ar  
    34    12    42 1   
    35    13    16 1   
    36    13    25 1   
    37    14    18 1   
    38    14    43 1   
    39    15    18 1   
    40    15    44 1   
    41    15    45 1   
    42    16    19 2   
    43    18    21 1   
    44    18    46 1   
    45    19    24 1   
    46    21    47 1   
    47    22    23 ar  
    48    22    48 1   
    49    23    24 1   
    50    24    25 2   
    51    25    49 1   
@<TRIPOS>SUBSTRUCTURE
     1 JJW         1 TEMP              0 ****  ****    0 ROOT
