@<TRIPOS>MOLECULE
JJW
   49    51     1     0     0
SMALL
abcg2


@<TRIPOS>ATOM
      1 C10         35.0070    -3.6950    55.8930 ca         1 JJW      -0.171500
      2 C13         35.8680    -6.9190    54.4010 c3         1 JJW       0.159600
      3 C15         35.2200    -9.5060    51.8720 c3         1 JJW       0.161600
      4 C17         38.5200    -1.4100    62.6240 c5         1 JJW       0.099500
      5 C11         35.7050    -4.8830    55.6560 ca         1 JJW       0.145100
      6 C12         36.8600    -5.1580    56.3880 ca         1 JJW      -0.171500
      7 C14         35.0730    -7.6000    53.3060 c3         1 JJW       0.154600
      8 C16         33.8430   -10.1200    52.0740 c3         1 JJW      -0.127100
      9 C01         38.9070    -0.6790    61.3530 c3         1 JJW       0.088600
     10 N01         37.1440    -1.1440    63.0450 n7         1 JJW      -0.813400
     11 O01         40.6860    -1.5530    63.8470 oh         1 JJW      -0.645000
     12 C02         35.4570    -2.8010    56.8460 ca         1 JJW      -0.056500
     13 N02         38.0890    -1.0690    60.2120 na         1 JJW       0.123800
     14 O02         38.9330    -2.6900    65.5640 oh         1 JJW      -0.661000
     15 C03         37.0930    -1.5610    64.4590 c5         1 JJW       0.133800
     16 N03         37.1390    -0.2520    59.7410 nc         1 JJW      -0.202800
     17 O03         35.1870    -5.7020    54.7020 os         1 JJW      -0.358100
     18 C04         38.5120    -1.4220    65.0490 c5         1 JJW       0.101300
     19 N04         36.5290    -0.8740    58.7690 nd         1 JJW      -0.357000
     20 O04         35.7190    -8.8290    53.0270 os         1 JJW      -0.471000
     21 C05         39.3830    -1.0030    63.8320 c5         1 JJW       0.105300
     22 C06         37.3010    -4.2490    57.3430 ca         1 JJW      -0.056500
     23 C07         36.6140    -3.0600    57.5930 ca         1 JJW      -0.141500
     24 C08         37.0810    -2.1120    58.6040 cd         1 JJW       0.270500
     25 C09         38.0910    -2.2370    59.5410 cc         1 JJW      -0.194000
     26 H1          34.1120    -3.4910    55.3200 ha         1 JJW       0.123000
     27 H2          35.9160    -7.5580    55.2870 h1         1 JJW       0.047700
     28 H3          36.8860    -6.7100    54.0610 h1         1 JJW       0.047700
     29 H4          35.9520   -10.2860    51.6600 h1         1 JJW       0.045200
     30 H5          35.2090    -8.8100    51.0230 h1         1 JJW       0.045200
     31 H6          38.6350    -2.4900    62.4720 h1         1 JJW       0.084700
     32 H7          37.4210    -6.0670    56.2240 ha         1 JJW       0.123000
     33 H8          35.0480    -6.9680    52.4090 h1         1 JJW       0.038700
     34 H9          34.0420    -7.7550    53.6430 h1         1 JJW       0.038700
     35 H10         33.5660   -10.6910    51.1850 hc         1 JJW       0.043033
     36 H11         33.8480   -10.7980    52.9300 hc         1 JJW       0.043033
     37 H12         33.0780    -9.3590    52.2360 hc         1 JJW       0.043033
     38 H13         39.9510    -0.8790    61.1140 h1         1 JJW       0.079200
     39 H14         38.7750     0.3960    61.4740 h1         1 JJW       0.079200
     40 H15         36.9730    -0.1440    62.9870 hn         1 JJW       0.410000
     41 H17         40.5990    -2.4640    64.1650 ho         1 JJW       0.456000
     42 H18         34.9040    -1.8870    57.0210 ha         1 JJW       0.121000
     43 H19         39.5890    -2.5380    66.2550 ho         1 JJW       0.451000
     44 H20         36.3500    -0.9760    64.9970 h1         1 JJW       0.074700
     45 H21         36.8090    -2.6140    64.5200 h1         1 JJW       0.074700
     46 H22         38.5620    -0.6750    65.8410 h1         1 JJW       0.053700
     47 H23         39.5000     0.0840    63.8290 h1         1 JJW       0.074700
     48 H24         38.2030    -4.4790    57.8960 ha         1 JJW       0.121000
     49 H25         38.7760    -3.0320    59.7750 h4         1 JJW       0.164000
@<TRIPOS>BOND
     1     1     5 ar  
     2     1    12 ar  
     3     1    26 1   
     4     2     7 1   
     5     2    17 1   
     6     2    27 1   
     7     2    28 1   
     8     3     8 1   
     9     3    20 1   
    10     3    29 1   
    11     3    30 1   
    12     4     9 1   
    13     4    10 1   
    14     4    21 1   
    15     4    31 1   
    16     5     6 ar  
    17     5    17 1   
    18     6    22 ar  
    19     6    32 1   
    20     7    20 1   
    21     7    33 1   
    22     7    34 1   
    23     8    35 1   
    24     8    36 1   
    25     8    37 1   
    26     9    13 1   
    27     9    38 1   
    28     9    39 1   
    29    10    15 1   
    30    10    40 1   
    31    11    21 1   
    32    11    41 1   
    33    12    23 ar  
    34    12    42 1   
    35    13    16 1   
    36    13    25 1   
    37    14    18 1   
    38    14    43 1   
    39    15    18 1   
    40    15    44 1   
    41    15    45 1   
    42    16    19 2   
    43    18    21 1   
    44    18    46 1   
    45    19    24 1   
    46    21    47 1   
    47    22    23 ar  
    48    22    48 1   
    49    23    24 1   
    50    24    25 2   
    51    25    49 1   
@<TRIPOS>SUBSTRUCTURE
     1 JJW         1 TEMP              0 ****  ****    0 ROOT
