@<TRIPOS>MOLECULE
JJX
   69    72     1     0     0
SMALL
bcc


@<TRIPOS>ATOM
      1 C33         -3.3340    -2.6440     1.9500 c6         1 JJX       0.095500
      2 C34         -3.5590    -3.9870     1.2760 c6         1 JJX       0.153800
      3 N35         -4.6240    -3.8890     0.2990 n3         1 JJX      -0.738600
      4 C38         -5.0830    -5.1830    -0.2000 c3         1 JJX       0.193500
      5 C40         -6.3980    -5.0430    -0.9580 c3         1 JJX      -0.107100
      6 C39         -4.0570    -5.9520    -1.0350 c3         1 JJX      -0.107100
      7 C36         -4.2920    -2.9070    -0.7130 c6         1 JJX       0.153800
      8 C37         -4.0890    -1.5450    -0.0670 c6         1 JJX       0.095500
      9 N31         -3.0590    -1.6240     0.9530 n          1 JJX      -0.473800
     10 C30         -1.9220    -0.9110     0.9740 c          1 JJX       0.653100
     11 O32         -1.0540    -1.0450     1.8240 o          1 JJX      -0.601100
     12 C29         -1.7470     0.1410    -0.1270 c3         1 JJX       0.020000
     13 N12         -0.4940     0.8330     0.0360 n          1 JJX      -0.453800
     14 C11          0.6130     0.2130    -0.4240 c          1 JJX       0.843500
     15 O21          0.5790    -0.8010    -1.0910 o          1 JJX      -0.627500
     16 C7          -0.5270     1.9890     0.9090 c6         1 JJX       0.240200
     17 C3          -1.2550     3.1460     0.2510 ca         1 JJX      -0.092300
     18 C2          -2.2370     3.8350     0.9520 ca         1 JJX      -0.114000
     19 C1          -2.8880     4.9140     0.3770 ca         1 JJX      -0.091500
     20 C6          -2.5500     5.3010    -0.9180 ca         1 JJX      -0.010000
     21 C19         -3.2210     6.4060    -1.5230 cg         1 JJX       0.230800
     22 N20         -3.7640     7.2980    -2.0110 n1         1 JJX      -0.356800
     23 C5          -1.5650     4.6150    -1.6300 ca         1 JJX      -0.091500
     24 C4          -0.9220     3.5430    -1.0400 ca         1 JJX      -0.114000
     25 C8           0.8660     2.4070     1.2930 ce         1 JJX      -0.145900
     26 C27          0.9550     3.4470     2.2440 cg         1 JJX       0.216500
     27 N28          0.9710     4.3020     3.0210 n1         1 JJX      -0.374800
     28 C9           1.9740     1.8490     0.7620 c2         1 JJX       0.145400
     29 C22          3.3580     2.2870     1.0980 c3         1 JJX      -0.075900
     30 N10          1.8420     0.8100    -0.1310 n          1 JJX      -0.321200
     31 C13          2.9850     0.2210    -0.7500 ca         1 JJX       0.038600
     32 C18          3.6030    -0.8660    -0.1590 ca         1 JJX      -0.059000
     33 C14          3.4650     0.7510    -1.9390 ca         1 JJX      -0.089000
     34 C15          4.5810     0.1870    -2.5360 ca         1 JJX      -0.131000
     35 C16          5.2110    -0.9030    -1.9540 ca         1 JJX      -0.069000
     36 C17          4.7210    -1.4270    -0.7650 ca         1 JJX      -0.193300
     37 C23          5.3560    -2.6220    -0.1240 c3         1 JJX       0.723200
     38 F25          4.5800    -3.7090    -0.2370 f          1 JJX      -0.231967
     39 F26          6.5380    -2.9280    -0.6640 f          1 JJX      -0.231967
     40 F24          5.5570    -2.4330     1.1870 f          1 JJX      -0.231967
     41 H331        -4.2300    -2.3580     2.5090 h1         1 JJX       0.059700
     42 H332        -2.5060    -2.7070     2.6510 h1         1 JJX       0.059700
     43 H341        -2.6050    -4.3200     0.8360 h1         1 JJX       0.043200
     44 H342        -3.8360    -4.7190     2.0390 h1         1 JJX       0.043200
     45 H38         -5.2920    -5.7770     0.6960 h1         1 JJX       0.054700
     46 H361        -3.3820    -3.1650    -1.2800 h1         1 JJX       0.043200
     47 H362        -5.1070    -2.8210    -1.4340 h1         1 JJX       0.043200
     48 H401        -6.8350    -6.0270    -1.1310 hc         1 JJX       0.038700
     49 H402        -7.1150    -4.4470    -0.3930 hc         1 JJX       0.038700
     50 H403        -6.2640    -4.5770    -1.9370 hc         1 JJX       0.038700
     51 H391        -3.1250    -6.1140    -0.4910 hc         1 JJX       0.038700
     52 H392        -4.4510    -6.9320    -1.3070 hc         1 JJX       0.038700
     53 H393        -3.8160    -5.4280    -1.9620 hc         1 JJX       0.038700
     54 H371        -3.8390    -0.8140    -0.8310 h1         1 JJX       0.059700
     55 H372        -5.0250    -1.2230     0.3990 h1         1 JJX       0.059700
     56 H291        -1.7950    -0.3090    -1.1170 h1         1 JJX       0.082700
     57 H292        -2.5560     0.8720    -0.0820 h1         1 JJX       0.082700
     58 H7          -1.0730     1.7160     1.8200 h1         1 JJX       0.078700
     59 H2          -2.5000     3.5270     1.9560 ha         1 JJX       0.142000
     60 H4          -0.1600     3.0140    -1.5990 ha         1 JJX       0.142000
     61 H1          -3.6520     5.4460     0.9250 ha         1 JJX       0.146500
     62 H5          -1.3090     4.9190    -2.6360 ha         1 JJX       0.146500
     63 H221         3.3510     3.0960     1.8230 hc         1 JJX       0.067700
     64 H222         3.9360     1.4620     1.5160 hc         1 JJX       0.067700
     65 H223         3.8830     2.6380     0.2090 hc         1 JJX       0.067700
     66 H18          3.2110    -1.2590     0.7710 ha         1 JJX       0.165000
     67 H14          2.9690     1.6000    -2.3900 ha         1 JJX       0.146000
     68 H15          4.9610     0.5960    -3.4620 ha         1 JJX       0.145000
     69 H16          6.0780    -1.3300    -2.4380 ha         1 JJX       0.153000
@<TRIPOS>BOND
     1     1     2 1   
     2     1     9 1   
     3     1    41 1   
     4     1    42 1   
     5     2     3 1   
     6     2    43 1   
     7     2    44 1   
     8     3     4 1   
     9     3     7 1   
    10     4     5 1   
    11     4     6 1   
    12     4    45 1   
    13     5    48 1   
    14     5    49 1   
    15     5    50 1   
    16     6    51 1   
    17     6    52 1   
    18     6    53 1   
    19     7     8 1   
    20     7    46 1   
    21     7    47 1   
    22     8     9 1   
    23     8    54 1   
    24     8    55 1   
    25     9    10 1   
    26    10    11 2   
    27    10    12 1   
    28    12    13 1   
    29    12    56 1   
    30    12    57 1   
    31    13    14 1   
    32    13    16 1   
    33    14    15 2   
    34    14    30 1   
    35    16    17 1   
    36    16    25 1   
    37    16    58 1   
    38    17    18 ar  
    39    17    24 ar  
    40    18    19 ar  
    41    18    59 1   
    42    19    20 ar  
    43    19    61 1   
    44    20    21 1   
    45    20    23 ar  
    46    21    22 3   
    47    23    24 ar  
    48    23    62 1   
    49    24    60 1   
    50    25    26 1   
    51    25    28 2   
    52    26    27 3   
    53    28    29 1   
    54    28    30 1   
    55    29    63 1   
    56    29    64 1   
    57    29    65 1   
    58    30    31 1   
    59    31    32 ar  
    60    31    33 ar  
    61    32    36 ar  
    62    32    66 1   
    63    33    34 ar  
    64    33    67 1   
    65    34    35 ar  
    66    34    68 1   
    67    35    36 ar  
    68    35    69 1   
    69    36    37 1   
    70    37    38 1   
    71    37    39 1   
    72    37    40 1   
@<TRIPOS>SUBSTRUCTURE
     1 JJX         1 TEMP              0 ****  ****    0 ROOT
