@<TRIPOS>MOLECULE
JJX
   69    72     1     0     0
SMALL
No Charge or Current Charge


@<TRIPOS>ATOM
      1 C33         -3.6300    -2.7420     2.3020 c6         1 JJX       0.095500
      2 C34         -3.7600    -4.0880     1.5360 c6         1 JJX       0.153800
      3 N35         -4.7720    -4.0070     0.4350 n3         1 JJX      -0.738600
      4 C38         -5.0470    -5.3150    -0.2260 c3         1 JJX       0.193500
      5 C40         -6.3230    -5.2750    -1.0970 c3         1 JJX      -0.107100
      6 C39         -3.8530    -5.8900    -1.0280 c3         1 JJX      -0.107100
      7 C36         -4.4630    -2.8700    -0.4930 c6         1 JJX       0.153800
      8 C37         -4.3270    -1.5230     0.2700 c6         1 JJX       0.095500
      9 N31         -3.3240    -1.6220     1.3700 n          1 JJX      -0.406800
     10 C30         -2.0780    -0.9510     1.3770 c          1 JJX       0.586100
     11 O32         -1.2280    -1.2310     2.2160 o          1 JJX      -0.601100
     12 C29         -1.8390     0.1740     0.3410 c3         1 JJX       0.020000
     13 N12         -0.5080     0.8490     0.4340 n          1 JJX      -0.386800
     14 C11          0.6300     0.2350    -0.1240 c          1 JJX       0.634000
     15 O21          0.5050    -0.7920    -0.7810 o          1 JJX      -0.552000
     16 C7          -0.4620     2.1730     1.0710 c6         1 JJX       0.240200
     17 C3          -1.1270     3.2220     0.1700 ca         1 JJX      -0.092300
     18 C2          -2.2760     3.9090     0.6090 ca         1 JJX      -0.096000
     19 C1          -2.8870     4.8700    -0.2160 ca         1 JJX      -0.073500
     20 C6          -2.3540     5.1520    -1.4890 ca         1 JJX      -0.010000
     21 C19         -2.9790     6.1340    -2.3320 cg         1 JJX       0.320000
     22 N20         -3.4940     6.9250    -3.0200 n1         1 JJX      -0.446000
     23 C5          -1.2060     4.4670    -1.9300 ca         1 JJX      -0.073500
     24 C4          -0.5960     3.5070    -1.1040 ca         1 JJX      -0.096000
     25 C8           0.9480     2.5950     1.4400 ce         1 JJX      -0.145900
     26 C27          1.0470     3.7060     2.3390 cg         1 JJX       0.305700
     27 N28          1.1000     4.5900     3.0980 n1         1 JJX      -0.464000
     28 C9           2.0330     1.9280     0.9730 c2         1 JJX       0.145400
     29 C22          3.4500     2.3090     1.4170 c3         1 JJX      -0.075900
     30 N10          1.9010     0.8410     0.0630 n          1 JJX      -0.161600
     31 C13          3.0320     0.3400    -0.6780 ca         1 JJX      -0.054000
     32 C18          3.4750    -0.9880    -0.5060 ca         1 JJX      -0.041000
     33 C14          3.7120     1.1870    -1.5730 ca         1 JJX      -0.071000
     34 C15          4.8180     0.7090    -2.2930 ca         1 JJX      -0.113000
     35 C16          5.2560    -0.6140    -2.1210 ca         1 JJX      -0.051000
     36 C17          4.5930    -1.4740    -1.2180 ca         1 JJX      -0.193300
     37 C23          5.0570    -2.9220    -1.0290 c3         1 JJX       0.359300
     38 F25          4.3770    -3.7650    -1.8370 f          1 JJX      -0.110667
     39 F26          6.3720    -3.0850    -1.3050 f          1 JJX      -0.110667
     40 F24          4.8740    -3.3560     0.2390 f          1 JJX      -0.110667
     41 H331        -4.5780    -2.5290     2.8160 h1         1 JJX       0.059700
     42 H332        -2.8580    -2.8390     3.0770 h1         1 JJX       0.059700
     43 H341        -2.7710    -4.3490     1.1330 h1         1 JJX       0.043200
     44 H342        -4.0360    -4.8740     2.2540 h1         1 JJX       0.043200
     45 H38         -5.2600    -6.0440     0.5690 h1         1 JJX       0.054700
     46 H361        -3.5220    -3.0590    -1.0310 h1         1 JJX       0.043200
     47 H362        -5.2510    -2.7540    -1.2500 h1         1 JJX       0.043200
     48 H401        -6.6040    -6.2880    -1.4070 hc         1 JJX       0.038700
     49 H402        -7.1610    -4.8500    -0.5330 hc         1 JJX       0.038700
     50 H403        -6.1730    -4.6760    -2.0030 hc         1 JJX       0.038700
     51 H391        -2.9680    -6.0120    -0.3940 hc         1 JJX       0.038700
     52 H392        -4.1070    -6.8770    -1.4300 hc         1 JJX       0.038700
     53 H393        -3.5900    -5.2420    -1.8710 hc         1 JJX       0.038700
     54 H371        -4.0840    -0.7270    -0.4440 h1         1 JJX       0.059700
     55 H372        -5.3020    -1.2660     0.7080 h1         1 JJX       0.059700
     56 H291        -1.9550    -0.2590    -0.6590 h1         1 JJX       0.082700
     57 H292        -2.6410     0.9120     0.4720 h1         1 JJX       0.082700
     58 H7          -1.0410     2.0990     2.0050 h1         1 JJX       0.078700
     59 H2          -2.6990     3.7030     1.5900 ha         1 JJX       0.124000
     60 H4           0.2910     2.9850    -1.4580 ha         1 JJX       0.124000
     61 H1          -3.7740     5.3930     0.1350 ha         1 JJX       0.128500
     62 H5          -0.7850     4.6770    -2.9110 ha         1 JJX       0.128500
     63 H221         3.4880     2.6010     2.4720 hc         1 JJX       0.067700
     64 H222         4.1590     1.4790     1.3190 hc         1 JJX       0.067700
     65 H223         3.8330     3.1470     0.8230 hc         1 JJX       0.067700
     66 H18          2.9470    -1.6390     0.1880 ha         1 JJX       0.147000
     67 H14          3.3780     2.2130    -1.7160 ha         1 JJX       0.128000
     68 H15          5.3370     1.3660    -2.9880 ha         1 JJX       0.127000
     69 H16          6.1120    -0.9660    -2.6940 ha         1 JJX       0.135000
@<TRIPOS>BOND
     1     1     2 1   
     2     1     9 1   
     3     1    41 1   
     4     1    42 1   
     5     2     3 1   
     6     2    43 1   
     7     2    44 1   
     8     3     4 1   
     9     3     7 1   
    10     4     5 1   
    11     4     6 1   
    12     4    45 1   
    13     5    48 1   
    14     5    49 1   
    15     5    50 1   
    16     6    51 1   
    17     6    52 1   
    18     6    53 1   
    19     7     8 1   
    20     7    46 1   
    21     7    47 1   
    22     8     9 1   
    23     8    54 1   
    24     8    55 1   
    25     9    10 1   
    26    10    11 2   
    27    10    12 1   
    28    12    13 1   
    29    12    56 1   
    30    12    57 1   
    31    13    14 1   
    32    13    16 1   
    33    14    15 2   
    34    14    30 1   
    35    16    17 1   
    36    16    25 1   
    37    16    58 1   
    38    17    18 ar  
    39    17    24 ar  
    40    18    19 ar  
    41    18    59 1   
    42    19    20 ar  
    43    19    61 1   
    44    20    21 1   
    45    20    23 ar  
    46    21    22 3   
    47    23    24 ar  
    48    23    62 1   
    49    24    60 1   
    50    25    26 1   
    51    25    28 2   
    52    26    27 3   
    53    28    29 1   
    54    28    30 1   
    55    29    63 1   
    56    29    64 1   
    57    29    65 1   
    58    30    31 1   
    59    31    32 ar  
    60    31    33 ar  
    61    32    36 ar  
    62    32    66 1   
    63    33    34 ar  
    64    33    67 1   
    65    34    35 ar  
    66    34    68 1   
    67    35    36 ar  
    68    35    69 1   
    69    36    37 1   
    70    37    38 1   
    71    37    39 1   
    72    37    40 1   
@<TRIPOS>SUBSTRUCTURE
     1 JJX         1 TEMP              0 ****  ****    0 ROOT
