@<TRIPOS>MOLECULE
JJY
   29    31     1     0     0
SMALL
No Charge or Current Charge


@<TRIPOS>ATOM
      1 C10         -3.7020     1.0730    -0.4420 c6         1 JJY      -0.068400
      2 C15         -0.0190    -1.1570    -0.0120 ca         1 JJY       0.035000
      3 O01          2.5970    -2.3520     0.1380 o          1 JJY      -0.517100
      4 C02          2.5090    -1.1480    -0.0670 c          1 JJY       0.592700
      5 C03          3.7610    -0.2960    -0.3030 c6         1 JJY      -0.178400
      6 C04          3.6660     1.0720     0.4050 c6         1 JJY      -0.068400
      7 C05          2.4020     1.8280    -0.0650 c6         1 JJY      -0.141700
      8 C06          1.1400     0.9660    -0.0400 ca         1 JJY       0.427300
      9 N07         -0.0180     1.6560    -0.0210 nb         1 JJY      -0.707000
     10 C08         -1.1770     0.9670     0.0030 ca         1 JJY       0.427300
     11 C09         -2.4380     1.8300     0.0230 c6         1 JJY      -0.141700
     12 C11         -3.7980    -0.2910     0.2740 c6         1 JJY      -0.178400
     13 C12         -2.5470    -1.1460     0.0440 c          1 JJY       0.592700
     14 O13         -2.6360    -2.3510    -0.1540 o          1 JJY      -0.517100
     15 C14         -1.2280    -0.4370     0.0180 ca         1 JJY      -0.251600
     16 C16          1.1900    -0.4380    -0.0460 ca         1 JJY      -0.251600
     17 H102        -4.6000     1.6750    -0.2410 hc         1 JJY       0.053700
     18 H101        -3.6640     0.9160    -1.5300 hc         1 JJY       0.053700
     19 H151        -0.0200    -2.2470    -0.0080 ha         1 JJY       0.158000
     20 H032         4.6640    -0.8600    -0.0330 hc         1 JJY       0.073200
     21 H031         3.7940    -0.0880    -1.3800 hc         1 JJY       0.073200
     22 H042         3.6280     0.9230     1.4930 hc         1 JJY       0.053700
     23 H041         4.5640     1.6730     0.2000 hc         1 JJY       0.053700
     24 H052         2.2600     2.7200     0.5600 hc         1 JJY       0.070700
     25 H051         2.5540     2.1940    -1.0890 hc         1 JJY       0.070700
     26 H091        -2.2950     2.7190    -0.6080 hc         1 JJY       0.070700
     27 H092        -2.5890     2.2030     1.0450 hc         1 JJY       0.070700
     28 H111        -3.8310    -0.0760     1.3510 hc         1 JJY       0.073200
     29 H112        -4.7020    -0.8560     0.0080 hc         1 JJY       0.073200
@<TRIPOS>BOND
     1     1    11 1   
     2     1    12 1   
     3     1    17 1   
     4     1    18 1   
     5     2    15 ar  
     6     2    16 ar  
     7     2    19 1   
     8     3     4 2   
     9     4     5 1   
    10     4    16 1   
    11     5     6 1   
    12     5    20 1   
    13     5    21 1   
    14     6     7 1   
    15     6    22 1   
    16     6    23 1   
    17     7     8 1   
    18     7    24 1   
    19     7    25 1   
    20     8     9 ar  
    21     8    16 ar  
    22     9    10 ar  
    23    10    11 1   
    24    10    15 ar  
    25    11    26 1   
    26    11    27 1   
    27    12    13 1   
    28    12    28 1   
    29    12    29 1   
    30    13    14 2   
    31    13    15 1   
@<TRIPOS>SUBSTRUCTURE
     1 JJY         1 TEMP              0 ****  ****    0 ROOT
