@<TRIPOS>MOLECULE
JJY
   29    31     1     0     0
SMALL
bcc


@<TRIPOS>ATOM
      1 C10         -3.6200     1.0520    -0.4550 c6         1 JJY      -0.068400
      2 C15         -0.0190    -1.0860    -0.0140 ca         1 JJY       0.017000
      3 O01          2.4920    -2.3390    -0.1270 o          1 JJY      -0.517100
      4 C02          2.4660    -1.1270    -0.1470 c          1 JJY       0.592700
      5 C03          3.7130    -0.2950    -0.2760 c6         1 JJY      -0.178400
      6 C04          3.5820     1.0520     0.4210 c6         1 JJY      -0.068400
      7 C05          2.3880     1.8200    -0.1240 c6         1 JJY      -0.141700
      8 C06          1.1300     1.0100    -0.0660 ca         1 JJY       0.492600
      9 N07         -0.0180     1.6760    -0.0210 nb         1 JJY      -0.707000
     10 C08         -1.1660     1.0120     0.0260 ca         1 JJY       0.492600
     11 C09         -2.4230     1.8230     0.0810 c6         1 JJY      -0.141700
     12 C11         -3.7500    -0.2900     0.2520 c6         1 JJY      -0.178400
     13 C12         -2.5050    -1.1240     0.1200 c          1 JJY       0.592700
     14 O13         -2.5310    -2.3370     0.1010 o          1 JJY      -0.517100
     15 C14         -1.2170    -0.3900     0.0410 ca         1 JJY      -0.316900
     16 C16          1.1790    -0.3910    -0.0730 ca         1 JJY      -0.316900
     17 H102        -4.5310     1.6340    -0.3130 hc         1 JJY       0.053700
     18 H101        -3.5080     0.8960    -1.5310 hc         1 JJY       0.053700
     19 H151        -0.0200    -2.1680    -0.0110 ha         1 JJY       0.176000
     20 H032         4.5640    -0.8670     0.0960 hc         1 JJY       0.073200
     21 H031         3.8820    -0.1370    -1.3480 hc         1 JJY       0.073200
     22 H042         3.4660     0.9040     1.4980 hc         1 JJY       0.053700
     23 H041         4.4940     1.6320     0.2790 hc         1 JJY       0.053700
     24 H052         2.2330     2.7570     0.4110 hc         1 JJY       0.070700
     25 H051         2.5720     2.0890    -1.1710 hc         1 JJY       0.070700
     26 H091        -2.2690     2.7560    -0.4630 hc         1 JJY       0.070700
     27 H092        -2.6040     2.1020     1.1260 hc         1 JJY       0.070700
     28 H111        -3.9120    -0.1250     1.3240 hc         1 JJY       0.073200
     29 H112        -4.6040    -0.8630    -0.1120 hc         1 JJY       0.073200
@<TRIPOS>BOND
     1     1    11 1   
     2     1    12 1   
     3     1    17 1   
     4     1    18 1   
     5     2    15 ar  
     6     2    16 ar  
     7     2    19 1   
     8     3     4 2   
     9     4     5 1   
    10     4    16 1   
    11     5     6 1   
    12     5    20 1   
    13     5    21 1   
    14     6     7 1   
    15     6    22 1   
    16     6    23 1   
    17     7     8 1   
    18     7    24 1   
    19     7    25 1   
    20     8     9 ar  
    21     8    16 ar  
    22     9    10 ar  
    23    10    11 1   
    24    10    15 ar  
    25    11    26 1   
    26    11    27 1   
    27    12    13 1   
    28    12    28 1   
    29    12    29 1   
    30    13    14 2   
    31    13    15 1   
@<TRIPOS>SUBSTRUCTURE
     1 JJY         1 TEMP              0 ****  ****    0 ROOT
