@<TRIPOS>MOLECULE
JJZ
   51    54     1     0     0
SMALL
bcc


@<TRIPOS>ATOM
      1 CAA         -8.9670     1.0200    -0.1310 ca         1 JJZ      -0.148000
      2 CAB         -8.0110     2.0190    -0.2230 ca         1 JJZ      -0.094000
      3 CAC         -6.6560     1.7340    -0.3160 ca         1 JJZ      -0.151000
      4 OAD         -3.7710     1.9640    -0.5390 o          1 JJZ      -0.580100
      5 OAE          0.0560    -0.9940    -1.4590 o          1 JJZ      -0.545100
      6 CAG         -8.5290    -0.2940    -0.1360 ca         1 JJZ       0.058400
      7 CAH         -7.1880    -0.6160    -0.2280 ca         1 JJZ      -0.185000
      8 CAI         -6.2340     0.4030    -0.3180 ca         1 JJZ       0.084600
      9 NAJ         -4.9030    -0.0050    -0.4040 ns         1 JJZ      -0.474100
     10 CAK         -3.7750     0.7480    -0.5180 c          1 JJZ       0.675100
     11 CAL         -2.5140    -0.0820    -0.6410 c3         1 JJZ      -0.152400
     12 CAM         -1.2620     0.7520    -0.4530 c3         1 JJZ      -0.153400
     13 CAN         -0.0020    -0.0390    -0.7110 c          1 JJZ       0.685100
     14 NAO          1.0820     0.4490    -0.0470 ns         1 JJZ      -0.354900
     15 NAP          2.3060    -0.0620    -0.2600 n2         1 JJZ      -0.405300
     16 CAQ          3.2730     0.4700     0.3710 ce         1 JJZ       0.372800
     17 CAR          4.4160    -3.7250     0.3550 ca         1 JJZ      -0.120500
     18 CAS          4.0350    -2.4180     0.3520 ca         1 JJZ      -0.118000
     19 CAT          4.9930    -1.3670     0.2170 ca         1 JJZ      -0.003500
     20 CAU          4.6570     0.0020     0.2270 ca         1 JJZ      -0.105900
     21 CAV          5.6680     0.9820     0.1390 ca         1 JJZ      -0.003500
     22 CAW          5.3860     2.3810     0.1120 ca         1 JJZ      -0.118000
     23 CAX          6.3850     3.3020     0.0230 ca         1 JJZ      -0.120500
     24 CAY          5.7790    -4.0920     0.2190 ca         1 JJZ      -0.124500
     25 CAZ          6.7270    -3.1260     0.1030 ca         1 JJZ      -0.116000
     26 CBA          6.3710    -1.7460     0.1090 ca         1 JJZ      -0.040500
     27 CBB          7.3550    -0.7690     0.0220 ca         1 JJZ      -0.092000
     28 CBC          7.0380     0.5840     0.0390 ca         1 JJZ      -0.040500
     29 CBD          8.0560     1.5760    -0.0540 ca         1 JJZ      -0.116000
     30 CBE          7.7420     2.8990    -0.0580 ca         1 JJZ      -0.124500
     31 HAA        -10.0190     1.2570    -0.0590 ha         1 JJZ       0.151000
     32 HAB         -8.3270     3.0540    -0.2200 ha         1 JJZ       0.138000
     33 HAC         -5.9480     2.5410    -0.3820 ha         1 JJZ       0.169000
     34 HAH         -6.8780    -1.6530    -0.2310 ha         1 JJZ       0.143000
     35 HNAJ        -4.7650    -1.0050    -0.3920 hn         1 JJZ       0.320500
     36 HAL         -2.5430    -0.9020     0.0810 hc         1 JJZ       0.078200
     37 HALA        -2.5160    -0.5500    -1.6300 hc         1 JJZ       0.078200
     38 HAM         -1.2600     1.5940    -1.1520 hc         1 JJZ       0.077200
     39 HAMA        -1.2380     1.1900     0.5470 hc         1 JJZ       0.077200
     40 HNAO         0.9730     1.2480     0.5700 hn         1 JJZ       0.303500
     41 HAQ          3.1050     1.3140     1.0450 h4         1 JJZ      -0.014200
     42 HAR          3.6670    -4.4980     0.4640 ha         1 JJZ       0.131500
     43 HAS          2.9870    -2.1790     0.4460 ha         1 JJZ       0.138000
     44 HAW          4.3630     2.7300     0.1480 ha         1 JJZ       0.138000
     45 HAX          6.1420     4.3560     0.0060 ha         1 JJZ       0.131500
     46 HAY          6.0560    -5.1380     0.2150 ha         1 JJZ       0.132500
     47 HAZ          7.7740    -3.3870     0.0070 ha         1 JJZ       0.131500
     48 HBB          8.3940    -1.0690    -0.0600 ha         1 JJZ       0.133000
     49 HBD          9.0870     1.2530    -0.1270 ha         1 JJZ       0.131500
     50 HBE          8.5200     3.6470    -0.1290 ha         1 JJZ       0.132500
     51 CLAF        -9.6880    -1.5790    -0.0250 cl         1 JJZ      -0.111400
@<TRIPOS>BOND
     1     1     2 ar  
     2     1     6 ar  
     3     1    31 1   
     4     2     3 ar  
     5     2    32 1   
     6     3     8 ar  
     7     3    33 1   
     8     4    10 2   
     9     5    13 2   
    10     6     7 ar  
    11     6    51 1   
    12     7     8 ar  
    13     7    34 1   
    14     8     9 1   
    15     9    10 1   
    16     9    35 1   
    17    10    11 1   
    18    11    12 1   
    19    11    36 1   
    20    11    37 1   
    21    12    13 1   
    22    12    38 1   
    23    12    39 1   
    24    13    14 1   
    25    14    15 1   
    26    14    40 1   
    27    15    16 2   
    28    16    20 1   
    29    16    41 1   
    30    17    18 ar  
    31    17    24 ar  
    32    17    42 1   
    33    18    19 ar  
    34    18    43 1   
    35    19    20 ar  
    36    19    26 ar  
    37    20    21 ar  
    38    21    22 ar  
    39    21    28 ar  
    40    22    23 ar  
    41    22    44 1   
    42    23    30 ar  
    43    23    45 1   
    44    24    25 ar  
    45    24    46 1   
    46    25    26 ar  
    47    25    47 1   
    48    26    27 ar  
    49    27    28 ar  
    50    27    48 1   
    51    28    29 ar  
    52    29    30 ar  
    53    29    49 1   
    54    30    50 1   
@<TRIPOS>SUBSTRUCTURE
     1 JJZ         1 TEMP              0 ****  ****    0 ROOT
