@<TRIPOS>MOLECULE
JJZ
   51    54     1     0     0
SMALL
No Charge or Current Charge


@<TRIPOS>ATOM
      1 CAA         -8.6170     0.2740     0.0960 ca         1 JJZ      -0.130000
      2 CAB         -8.0310     1.5490     0.0510 ca         1 JJZ      -0.076000
      3 CAC         -6.6620     1.6850    -0.2440 ca         1 JJZ      -0.133000
      4 OAD         -3.9310     2.8460    -0.9490 o          1 JJZ      -0.580100
      5 OAE          0.9380     1.8450    -1.1970 o          1 JJZ      -0.545100
      6 CAG         -7.8340    -0.8620    -0.1530 ca         1 JJZ       0.150000
      7 CAH         -6.4680    -0.7280    -0.4480 ca         1 JJZ      -0.167000
      8 CAI         -5.8670     0.5450    -0.5000 ca         1 JJZ      -0.008000
      9 NAJ         -4.4780     0.6030    -0.8020 ns         1 JJZ      -0.148000
     10 CAK         -3.6040     1.6660    -0.9910 c          1 JJZ       0.608100
     11 CAL         -2.1580     1.2510    -1.3010 c3         1 JJZ      -0.152400
     12 CAM         -1.1980     1.5320    -0.1080 c3         1 JJZ      -0.153400
     13 CAN          0.2560     1.1650    -0.4390 c          1 JJZ       0.618100
     14 NAO          0.7430     0.0340     0.2100 ns         1 JJZ      -0.287900
     15 NAP          2.0250    -0.4630     0.0370 n2         1 JJZ      -0.405300
     16 CAQ          3.0090     0.0710     0.6950 ce         1 JJZ       0.372800
     17 CAR          4.5420    -3.9230     1.4690 ca         1 JJZ      -0.102500
     18 CAS          4.0550    -2.6280     1.2260 ca         1 JJZ      -0.100000
     19 CAT          4.8950    -1.6300     0.6730 ca         1 JJZ      -0.003500
     20 CAU          4.4260    -0.3110     0.4180 ca         1 JJZ      -0.105900
     21 CAV          5.3220     0.6620    -0.1020 ca         1 JJZ      -0.003500
     22 CAW          4.9000     1.9860    -0.3770 ca         1 JJZ      -0.100000
     23 CAX          5.8010     2.9320    -0.8940 ca         1 JJZ      -0.102500
     24 CAY          5.8740    -4.2440     1.1710 ca         1 JJZ      -0.106500
     25 CAZ          6.7230    -3.2640     0.6360 ca         1 JJZ      -0.098000
     26 CBA          6.2420    -1.9630     0.3910 ca         1 JJZ      -0.040500
     27 CBB          7.1160    -0.9970    -0.1280 ca         1 JJZ      -0.074000
     28 CBC          6.6660     0.3100    -0.3710 ca         1 JJZ      -0.040500
     29 CBD          7.5640     1.2630    -0.8890 ca         1 JJZ      -0.098000
     30 CBE          7.1330     2.5730    -1.1480 ca         1 JJZ      -0.106500
     31 HAA         -9.6750     0.1660     0.3250 ha         1 JJZ       0.133000
     32 HAB         -8.6350     2.4320     0.2470 ha         1 JJZ       0.120000
     33 HAC         -6.2410     2.6860    -0.2650 ha         1 JJZ       0.151000
     34 HAH         -5.8760    -1.6200    -0.6380 ha         1 JJZ       0.125000
     35 HNAJ        -4.0440    -0.3070    -0.8920 hn         1 JJZ       0.154000
     36 HAL         -2.1180     0.1810    -1.5400 hc         1 JJZ       0.078200
     37 HALA        -1.8160     1.8310    -2.1680 hc         1 JJZ       0.078200
     38 HAM         -1.2340     2.6040     0.1230 hc         1 JJZ       0.077200
     39 HAMA        -1.5410     0.9590     0.7620 hc         1 JJZ       0.077200
     40 HNAO         0.0860    -0.4390     0.8240 hn         1 JJZ       0.303500
     41 HAQ          2.8520     0.9420     1.3360 h4         1 JJZ      -0.014200
     42 HAR          3.8840    -4.6800     1.8930 ha         1 JJZ       0.113500
     43 HAS          3.0210    -2.4180     1.4820 ha         1 JJZ       0.120000
     44 HAW          3.8750     2.3010    -0.2030 ha         1 JJZ       0.120000
     45 HAX          5.4650     3.9460    -1.1000 ha         1 JJZ       0.113500
     46 HAY          6.2490    -5.2470     1.3610 ha         1 JJZ       0.114500
     47 HAZ          7.7580    -3.5170     0.4150 ha         1 JJZ       0.113500
     48 HBB          8.1500    -1.2600    -0.3390 ha         1 JJZ       0.115000
     49 HBD          8.5970     0.9900    -1.0940 ha         1 JJZ       0.113500
     50 HBE          7.8290     3.3070    -1.5490 ha         1 JJZ       0.114500
     51 ClAF        -8.5640    -2.4610    -0.0960 cl         1 JJZ      -0.203000
@<TRIPOS>BOND
     1     1     2 ar  
     2     1     6 ar  
     3     1    31 1   
     4     2     3 ar  
     5     2    32 1   
     6     3     8 ar  
     7     3    33 1   
     8     4    10 2   
     9     5    13 2   
    10     6     7 ar  
    11     6    51 1   
    12     7     8 ar  
    13     7    34 1   
    14     8     9 1   
    15     9    10 1   
    16     9    35 1   
    17    10    11 1   
    18    11    12 1   
    19    11    36 1   
    20    11    37 1   
    21    12    13 1   
    22    12    38 1   
    23    12    39 1   
    24    13    14 1   
    25    14    15 1   
    26    14    40 1   
    27    15    16 2   
    28    16    20 1   
    29    16    41 1   
    30    17    18 ar  
    31    17    24 ar  
    32    17    42 1   
    33    18    19 ar  
    34    18    43 1   
    35    19    20 ar  
    36    19    26 ar  
    37    20    21 ar  
    38    21    22 ar  
    39    21    28 ar  
    40    22    23 ar  
    41    22    44 1   
    42    23    30 ar  
    43    23    45 1   
    44    24    25 ar  
    45    24    46 1   
    46    25    26 ar  
    47    25    47 1   
    48    26    27 ar  
    49    27    28 ar  
    50    27    48 1   
    51    28    29 ar  
    52    29    30 ar  
    53    29    49 1   
    54    30    50 1   
@<TRIPOS>SUBSTRUCTURE
     1 JJZ         1 TEMP              0 ****  ****    0 ROOT
