@<TRIPOS>MOLECULE
JK0
   64    66     1     0     0
SMALL
No Charge or Current Charge


@<TRIPOS>ATOM
      1 C10         36.3970    -0.8550    42.1550 ca         1 JK0      -0.068000
      2 C13         38.6880    -5.2960    41.3990 c3         1 JK0       0.153300
      3 C15         38.6430    -7.3430    39.8920 ca         1 JK0      -0.092000
      4 C17         37.0600    -9.1570    40.2620 ca         1 JK0      -0.104000
      5 C20         34.8400    -3.6320    38.4370 ca         1 JK0      -0.054000
      6 C21         33.6100    -4.1730    38.0300 ca         1 JK0      -0.166000
      7 C22         32.5260    -4.1660    38.9230 ca         1 JK0       0.340900
      8 C24         33.7970    -3.1390    40.5660 ca         1 JK0       0.375900
      9 C26         35.7310    -0.0490    44.3620 ca         1 JK0      -0.108500
     10 C28         38.0700    -0.4700    43.8860 ca         1 JK0      -0.108500
     11 C02         36.8910    -3.5420    41.2190 c          1 JK0       0.594100
     12 C03         36.2490    -2.5050    40.2490 c3         1 JK0       0.097000
     13 C05         35.7540    -0.0810    39.8470 c          1 JK0       0.619100
     14 C06         35.7500     1.3920    40.2930 c3         1 JK0      -0.155400
     15 C07         36.9020     2.1720    39.6410 c3         1 JK0       0.170600
     16 C11         34.9360    -3.0990    39.7360 ca         1 JK0      -0.129300
     17 C14         38.1220    -6.6520    41.0040 ca         1 JK0      -0.106300
     18 C16         38.1140    -8.5920    39.5230 ca         1 JK0      -0.111500
     19 C18         36.5360    -8.4710    41.3700 ca         1 JK0      -0.111500
     20 C19         37.0650    -7.2220    41.7400 ca         1 JK0      -0.092000
     21 C25         35.4030    -0.4130    43.0450 ca         1 JK0      -0.093500
     22 C27         37.0740    -0.0810    44.8130 ca         1 JK0      -0.054300
     23 C29         37.7380    -0.8330    42.5710 ca         1 JK0      -0.093500
     24 C30         37.4850     0.3120    46.2580 c3         1 JK0      -0.001700
     25 C31         38.2140    -0.8850    46.9280 c3         1 JK0      -0.083100
     26 C32         36.2730     0.6930    47.1550 c3         1 JK0      -0.083100
     27 C33         38.4420     1.5330    46.2040 c3         1 JK0      -0.083100
     28 N04         36.0740    -1.1130    40.7800 n          1 JK0      -0.239400
     29 N23         32.6090    -3.6590    40.1740 nb         1 JK0      -0.672000
     30 O08         38.1580     1.6440    40.0770 oh         1 JK0      -0.668000
     31 O09         35.4640    -0.3450    38.6850 o          1 JK0      -0.594100
     32 O12         36.4260    -3.8200    42.3180 o          1 JK0      -0.571100
     33 H1          39.7530    -5.2480    41.1340 h1         1 JK0       0.057700
     34 H2          38.6130    -5.1580    42.4860 h1         1 JK0       0.057700
     35 H4          36.6510   -10.1230    39.9760 ha         1 JK0       0.112000
     36 H5          35.6920    -3.6270    37.7610 ha         1 JK0       0.114000
     37 H6          33.4910    -4.5940    37.0350 ha         1 JK0       0.121000
     38 H7          31.5620    -4.5800    38.6300 h4         1 JK0       0.016100
     39 H8          33.8320    -2.7400    41.5800 h4         1 JK0       0.021100
     40 H9          34.9200     0.2620    45.0130 ha         1 JK0       0.117000
     41 H10         39.1170    -0.4830    44.1770 ha         1 JK0       0.117000
     42 H11         36.9370    -2.4230    39.3970 h1         1 JK0       0.065700
     43 H12         34.8110     1.8460    39.9590 hc         1 JK0       0.075200
     44 H13         35.8330     1.5070    41.3750 hc         1 JK0       0.075200
     45 H14         36.8180     3.2310    39.9210 h1         1 JK0       0.030700
     46 H15         36.8170     2.1080    38.5470 h1         1 JK0       0.030700
     47 H16         38.5200    -9.1210    38.6640 ha         1 JK0       0.112500
     48 H17         35.7190    -8.9060    41.9420 ha         1 JK0       0.112500
     49 H18         36.6510    -6.6950    42.5980 ha         1 JK0       0.110500
     50 H19         34.3660    -0.3640    42.7190 ha         1 JK0       0.125000
     51 H20         38.5300    -1.0970    41.8730 ha         1 JK0       0.125000
     52 H21         38.4850    -0.6500    47.9640 hc         1 JK0       0.036144
     53 H22         37.5690    -1.7720    46.9400 hc         1 JK0       0.036144
     54 H23         39.1370    -1.1470    46.3980 hc         1 JK0       0.036144
     55 H24         36.6020     0.9510    48.1690 hc         1 JK0       0.036144
     56 H25         35.7400     1.5630    46.7520 hc         1 JK0       0.036144
     57 H26         35.5660    -0.1420    47.2400 hc         1 JK0       0.036144
     58 H27         38.7260     1.8550    47.2140 hc         1 JK0       0.036144
     59 H28         39.3650     1.2990    45.6610 hc         1 JK0       0.036144
     60 H29         37.9600     2.3800    45.7010 hc         1 JK0       0.036144
     61 H31         38.8590     2.2050    39.6780 ho         1 JK0       0.445000
     62 N01         37.9870    -4.2120    40.7110 ns         1 JK0      -0.502900
     63 H3          39.4570    -6.9120    39.3130 ha         1 JK0       0.110500
     64 H30         38.2980    -3.9570    39.7820 hn         1 JK0       0.317500
@<TRIPOS>BOND
     1     1    21 ar  
     2     1    23 ar  
     3     1    28 1   
     4     2    17 1   
     5     2    33 1   
     6     2    34 1   
     7     2    62 1   
     8     3    17 ar  
     9     3    18 ar  
    10     3    63 1   
    11     4    18 ar  
    12     4    19 ar  
    13     4    35 1   
    14     5     6 ar  
    15     5    16 ar  
    16     5    36 1   
    17     6     7 ar  
    18     6    37 1   
    19     7    29 ar  
    20     7    38 1   
    21     8    16 ar  
    22     8    29 ar  
    23     8    39 1   
    24     9    21 ar  
    25     9    22 ar  
    26     9    40 1   
    27    10    22 ar  
    28    10    23 ar  
    29    10    41 1   
    30    11    12 1   
    31    11    32 2   
    32    11    62 1   
    33    12    16 1   
    34    12    28 1   
    35    12    42 1   
    36    13    14 1   
    37    13    28 1   
    38    13    31 2   
    39    14    15 1   
    40    14    43 1   
    41    14    44 1   
    42    15    30 1   
    43    15    45 1   
    44    15    46 1   
    45    17    20 ar  
    46    18    47 1   
    47    19    20 ar  
    48    19    48 1   
    49    20    49 1   
    50    21    50 1   
    51    22    24 1   
    52    23    51 1   
    53    24    25 1   
    54    24    26 1   
    55    24    27 1   
    56    25    52 1   
    57    25    53 1   
    58    25    54 1   
    59    26    55 1   
    60    26    56 1   
    61    26    57 1   
    62    27    58 1   
    63    27    59 1   
    64    27    60 1   
    65    30    61 1   
    66    62    64 1   
@<TRIPOS>SUBSTRUCTURE
     1 JK0         1 TEMP              0 ****  ****    0 ROOT
