@<TRIPOS>MOLECULE
JK0
   64    66     1     0     0
SMALL
abcg2


@<TRIPOS>ATOM
      1 C10         36.4140    -0.8720    41.9460 ca         1 JK0      -0.068000
      2 C13         38.2890    -4.7520    42.0180 c3         1 JK0       0.153300
      3 C15         38.2770    -6.6860    40.4040 ca         1 JK0      -0.092000
      4 C17         37.4160    -8.8470    41.0220 ca         1 JK0      -0.104000
      5 C20         34.6940    -3.6400    38.2850 ca         1 JK0      -0.054000
      6 C21         33.4740    -4.0700    37.7880 ca         1 JK0      -0.166000
      7 C22         32.3200    -3.6890    38.4550 ca         1 JK0       0.340900
      8 C24         33.5070    -2.5290    40.0140 ca         1 JK0       0.375900
      9 C26         35.8620    -0.6390    44.2750 ca         1 JK0      -0.108500
     10 C28         38.1380    -0.5080    43.5810 ca         1 JK0      -0.108500
     11 C02         36.4470    -3.4550    41.0900 c          1 JK0       0.594100
     12 C03         36.0460    -2.4310    40.0160 c3         1 JK0       0.097000
     13 C05         35.8750    -0.0540    39.7050 c          1 JK0       0.619100
     14 C06         35.8550     1.3630    40.2380 c3         1 JK0      -0.155400
     15 C07         36.8620     2.2320    39.5100 c3         1 JK0       0.170600
     16 C11         34.7240    -2.8510    39.4260 ca         1 JK0      -0.129300
     17 C14         37.9670    -6.1840    41.6670 ca         1 JK0      -0.106300
     18 C16         38.0030    -8.0070    40.0830 ca         1 JK0      -0.111500
     19 C18         37.1040    -8.3550    42.2810 ca         1 JK0      -0.111500
     20 C19         37.3760    -7.0290    42.5980 ca         1 JK0      -0.092000
     21 C25         35.4710    -0.8440    42.9590 ca         1 JK0      -0.093500
     22 C27         37.2020    -0.4690    44.6170 ca         1 JK0      -0.054300
     23 C29         37.7560    -0.7050    42.2650 ca         1 JK0      -0.093500
     24 C30         37.6680    -0.2460    46.0520 c3         1 JK0      -0.001700
     25 C31         38.6250    -1.3770    46.4540 c3         1 JK0      -0.083100
     26 C32         36.5050    -0.2260    47.0430 c3         1 JK0      -0.083100
     27 C33         38.4020     1.0990    46.1420 c3         1 JK0      -0.083100
     28 N04         36.0240    -1.0820    40.5900 n          1 JK0      -0.239400
     29 N23         32.3330    -2.9300    39.5460 nb         1 JK0      -0.672000
     30 O08         38.1470     1.6990    39.7420 oh         1 JK0      -0.668000
     31 O09         35.7290    -0.2710    38.5150 o          1 JK0      -0.594100
     32 O12         35.6340    -3.9100    41.8740 o          1 JK0      -0.571100
     33 H1          39.3700    -4.6050    42.0240 h1         1 JK0       0.057700
     34 H2          37.9330    -4.5230    43.0230 h1         1 JK0       0.057700
     35 H4          37.2030    -9.8780    40.7720 ha         1 JK0       0.112000
     36 H5          35.6160    -3.9130    37.7850 ha         1 JK0       0.114000
     37 H6          33.4160    -4.6820    36.8990 ha         1 JK0       0.121000
     38 H7          31.3480    -4.0050    38.0940 h4         1 JK0       0.016100
     39 H8          33.4750    -1.9050    40.9010 h4         1 JK0       0.021100
     40 H9          35.0940    -0.6170    45.0350 ha         1 JK0       0.117000
     41 H10         39.1920    -0.3780    43.7950 ha         1 JK0       0.117000
     42 H11         36.7900    -2.4540    39.2130 h1         1 JK0       0.065700
     43 H12         34.8540     1.7600    40.0500 hc         1 JK0       0.075200
     44 H13         36.0180     1.4220    41.3120 hc         1 JK0       0.075200
     45 H14         36.7730     3.2580    39.8860 h1         1 JK0       0.030700
     46 H15         36.6210     2.2590    38.4420 h1         1 JK0       0.030700
     47 H16         38.2510    -8.3830    39.0990 ha         1 JK0       0.112500
     48 H17         36.6420    -9.0010    43.0170 ha         1 JK0       0.112500
     49 H18         37.1240    -6.6490    43.5820 ha         1 JK0       0.110500
     50 H19         34.4220    -0.9680    42.7250 ha         1 JK0       0.125000
     51 H20         38.5000    -0.7210    41.4800 ha         1 JK0       0.125000
     52 H21         38.9760    -1.2280    47.4770 hc         1 JK0       0.036144
     53 H22         38.1290    -2.3480    46.4080 hc         1 JK0       0.036144
     54 H23         39.5030    -1.4180    45.8080 hc         1 JK0       0.036144
     55 H24         36.8900    -0.0670    48.0510 hc         1 JK0       0.036144
     56 H25         35.7990     0.5790    46.8320 hc         1 JK0       0.036144
     57 H26         35.9540    -1.1680    47.0480 hc         1 JK0       0.036144
     58 H27         38.7420     1.2740    47.1650 hc         1 JK0       0.036144
     59 H28         39.2790     1.1320    45.4950 hc         1 JK0       0.036144
     60 H29         37.7460     1.9250    45.8620 hc         1 JK0       0.036144
     61 H31         38.7840     2.2070    39.2310 ho         1 JK0       0.445000
     62 N01         37.7400    -3.7990    41.0790 ns         1 JK0      -0.502900
     63 H3          38.7370    -6.0400    39.6650 ha         1 JK0       0.110500
     64 H30         38.3570    -3.3940    40.3940 hn         1 JK0       0.317500
@<TRIPOS>BOND
     1     1    21 ar  
     2     1    23 ar  
     3     1    28 1   
     4     2    17 1   
     5     2    33 1   
     6     2    34 1   
     7     2    62 1   
     8     3    17 ar  
     9     3    18 ar  
    10     3    63 1   
    11     4    18 ar  
    12     4    19 ar  
    13     4    35 1   
    14     5     6 ar  
    15     5    16 ar  
    16     5    36 1   
    17     6     7 ar  
    18     6    37 1   
    19     7    29 ar  
    20     7    38 1   
    21     8    16 ar  
    22     8    29 ar  
    23     8    39 1   
    24     9    21 ar  
    25     9    22 ar  
    26     9    40 1   
    27    10    22 ar  
    28    10    23 ar  
    29    10    41 1   
    30    11    12 1   
    31    11    32 2   
    32    11    62 1   
    33    12    16 1   
    34    12    28 1   
    35    12    42 1   
    36    13    14 1   
    37    13    28 1   
    38    13    31 2   
    39    14    15 1   
    40    14    43 1   
    41    14    44 1   
    42    15    30 1   
    43    15    45 1   
    44    15    46 1   
    45    17    20 ar  
    46    18    47 1   
    47    19    20 ar  
    48    19    48 1   
    49    20    49 1   
    50    21    50 1   
    51    22    24 1   
    52    23    51 1   
    53    24    25 1   
    54    24    26 1   
    55    24    27 1   
    56    25    52 1   
    57    25    53 1   
    58    25    54 1   
    59    26    55 1   
    60    26    56 1   
    61    26    57 1   
    62    27    58 1   
    63    27    59 1   
    64    27    60 1   
    65    30    61 1   
    66    62    64 1   
@<TRIPOS>SUBSTRUCTURE
     1 JK0         1 TEMP              0 ****  ****    0 ROOT
