@<TRIPOS>MOLECULE
JK1
   61    64     1     0     0
SMALL
abcg2


@<TRIPOS>ATOM
      1 O1           2.7830     4.7180   -10.0550 o          1 JK1      -0.621100
      2 N2           2.0070     4.8880    -7.9320 ns         1 JK1      -0.177000
      3 C3           0.3090    -0.2020     0.9820 c3         1 JK1       0.146900
      4 O4           1.6330     1.3000    -1.6470 os         1 JK1      -0.329600
      5 C5           0.7760     5.6490    -4.5380 ca         1 JK1      -0.090000
      6 C6           1.0040     7.7160    -5.7390 ca         1 JK1      -0.090000
      7 C7          -5.4350     5.6290    -6.2650 ca         1 JK1      -0.103000
      8 C8           1.2160     4.9480    -5.6540 ca         1 JK1      -0.146000
      9 C10         -5.1510     4.6270    -5.3470 ca         1 JK1      -0.060000
     10 C11         -4.4590     6.0860    -7.1410 ca         1 JK1      -0.076000
     11 C15         -0.3590     2.1230    -2.7560 ca         1 JK1      -0.266500
     12 C16         -1.0560     5.3100    -8.3480 cc         1 JK1      -0.168000
     13 C17          1.9460     5.1760    -9.2740 c          1 JK1       0.660100
     14 C19          1.5570     5.6340    -6.8210 ca         1 JK1      -0.013000
     15 C20         -1.7380     2.0090    -2.9410 ca         1 JK1       0.045000
     16 C22         -3.8650     4.0900    -5.2800 ca         1 JK1      -0.137600
     17 C23         -3.1800     5.5380    -7.0820 ca         1 JK1       0.018800
     18 C24         -1.8000     0.1600    -1.4080 ca         1 JK1       0.182100
     19 C25          0.2980     1.2560    -1.8890 ca         1 JK1       0.182100
     20 C26         -0.4190     0.2610    -1.2100 ca         1 JK1       0.005100
     21 C1          -3.8310    -0.9870    -0.8820 c3         1 JK1       0.145900
     22 N1          -2.2270     7.2250    -8.5110 nc         1 JK1      -0.498800
     23 C2           2.4030     2.3030    -2.3100 c3         1 JK1       0.145900
     24 O2          -4.5090     2.2640    -3.9000 o          1 JK1      -0.579100
     25 N3           0.9210     5.9630    -9.7320 ns         1 JK1      -0.395100
     26 O3          -2.4230    -0.8240    -0.7120 os         1 JK1      -0.329600
     27 C4           0.6550     7.0340    -4.5780 ca         1 JK1      -0.125000
     28 N4          -2.3240     2.9330    -3.8250 ns         1 JK1      -0.143000
     29 N5          -2.1770     5.9840    -7.9720 na         1 JK1       0.217000
     30 O5           0.2320    -0.6250    -0.3880 os         1 JK1      -0.331100
     31 C9           1.4660     7.0260    -6.8530 ca         1 JK1      -0.146000
     32 C12         -1.1090     7.3470    -9.2130 cd         1 JK1       0.241900
     33 C13         -2.8780     4.5510    -6.1490 ca         1 JK1      -0.109000
     34 C14         -2.4690     1.0300    -2.2710 ca         1 JK1      -0.266500
     35 C21         -0.3320     6.1700    -9.1410 cd         1 JK1      -0.060400
     36 HN2          2.6360     4.1240    -7.7300 hn         1 JK1       0.167000
     37 H3           0.8650     0.7360     1.0630 h1         1 JK1       0.035367
     38 H3A         -0.6920    -0.0720     1.4000 h1         1 JK1       0.035367
     39 H3B          0.8340    -0.9870     1.5220 h1         1 JK1       0.035367
     40 H5           0.5150     5.1080    -3.6380 ha         1 JK1       0.114500
     41 H6           0.9260     8.7950    -5.7810 ha         1 JK1       0.114500
     42 H7          -6.4290     6.0530    -6.3090 ha         1 JK1       0.128000
     43 H8           1.2850     3.8680    -5.6310 ha         1 JK1       0.121500
     44 H10         -5.9130     4.2620    -4.6740 ha         1 JK1       0.142000
     45 H11         -4.6810     6.8520    -7.8690 ha         1 JK1       0.146000
     46 H15          0.1880     2.8810    -3.2940 ha         1 JK1       0.135500
     47 H16         -0.8500     4.3040    -8.0300 h4         1 JK1       0.168000
     48 H1          -4.1100    -1.8230    -0.2450 h1         1 JK1       0.044700
     49 H1A         -4.3710    -0.0910    -0.5700 h1         1 JK1       0.044700
     50 H1B         -4.0760    -1.2180    -1.9210 h1         1 JK1       0.044700
     51 H2           2.3530     2.1840    -3.3950 h1         1 JK1       0.044700
     52 H2A          2.0610     3.3040    -2.0380 h1         1 JK1       0.044700
     53 H2B          3.4260     2.1610    -1.9730 h1         1 JK1       0.044700
     54 HN3          1.0210     6.2230   -10.7020 hn         1 JK1       0.337500
     55 H4           0.2980     7.5760    -3.7120 ha         1 JK1       0.120000
     56 HN4         -1.6930     3.6460    -4.1580 hn         1 JK1       0.154000
     57 H9           1.7490     7.5650    -7.7460 ha         1 JK1       0.121500
     58 H12         -0.8880     8.2610    -9.7430 h4         1 JK1       0.047100
     59 H13         -1.8780     4.1430    -6.1170 ha         1 JK1       0.122000
     60 H14         -3.5300     0.9600    -2.4220 ha         1 JK1       0.135500
     61 C18         -3.6050     3.0070    -4.2740 c          1 JK1       0.620700
@<TRIPOS>BOND
     1     1    13 2   
     2     2    13 1   
     3     2    14 1   
     4     2    36 1   
     5     3    30 1   
     6     3    37 1   
     7     3    38 1   
     8     3    39 1   
     9     4    19 1   
    10     4    23 1   
    11     5     8 ar  
    12     5    27 ar  
    13     5    40 1   
    14     6    27 ar  
    15     6    31 ar  
    16     6    41 1   
    17     7     9 ar  
    18     7    10 ar  
    19     7    42 1   
    20     8    14 ar  
    21     8    43 1   
    22     9    16 ar  
    23     9    44 1   
    24    10    17 ar  
    25    10    45 1   
    26    11    15 ar  
    27    11    19 ar  
    28    11    46 1   
    29    12    29 1   
    30    12    35 2   
    31    12    47 1   
    32    13    25 1   
    33    14    31 ar  
    34    15    28 1   
    35    15    34 ar  
    36    16    33 ar  
    37    16    61 1   
    38    17    29 1   
    39    17    33 ar  
    40    18    20 ar  
    41    18    26 1   
    42    18    34 ar  
    43    19    20 ar  
    44    20    30 1   
    45    21    26 1   
    46    21    48 1   
    47    21    49 1   
    48    21    50 1   
    49    22    29 1   
    50    22    32 2   
    51    23    51 1   
    52    23    52 1   
    53    23    53 1   
    54    24    61 2   
    55    25    35 1   
    56    25    54 1   
    57    27    55 1   
    58    28    56 1   
    59    28    61 1   
    60    31    57 1   
    61    32    35 1   
    62    32    58 1   
    63    33    59 1   
    64    34    60 1   
@<TRIPOS>SUBSTRUCTURE
     1 JK1         1 TEMP              0 ****  ****    0 ROOT
