@<TRIPOS>MOLECULE
JK1
   61    64     1     0     0
SMALL
No Charge or Current Charge


@<TRIPOS>ATOM
      1 O1           3.1710     5.9790    -9.4770 o          1 JK1      -0.621100
      2 N2           2.1990     5.5160    -7.4750 ns         1 JK1      -0.177000
      3 C3           0.1560    -0.5750     1.0050 c3         1 JK1       0.146900
      4 O4           1.7330     0.4600    -2.6590 os         1 JK1      -0.329600
      5 C5           0.5740     5.0450    -4.1530 ca         1 JK1      -0.090000
      6 C6           0.3010     7.3680    -4.8140 ca         1 JK1      -0.090000
      7 C7          -5.5140     4.7030    -7.3370 ca         1 JK1      -0.103000
      8 C8           1.2700     4.7870    -5.3480 ca         1 JK1      -0.146000
      9 C10         -5.2170     3.8970    -6.2270 ca         1 JK1      -0.060000
     10 C11         -4.4970     5.4280    -7.9770 ca         1 JK1      -0.076000
     11 C15         -0.2900     1.5650    -3.4500 ca         1 JK1      -0.266500
     12 C16         -0.8340     5.6600    -8.2200 cc         1 JK1      -0.168000
     13 C17          2.2050     6.0960    -8.7390 c          1 JK1       0.660100
     14 C19          1.4750     5.8130    -6.2890 ca         1 JK1      -0.013000
     15 C20         -1.6130     1.9670    -3.2350 ca         1 JK1       0.045000
     16 C22         -3.8940     3.7990    -5.7410 ca         1 JK1      -0.137600
     17 C23         -3.1690     5.3600    -7.5070 ca         1 JK1       0.018800
     18 C24         -1.5400     0.9660    -0.9940 ca         1 JK1       0.182100
     19 C25          0.4220     0.8620    -2.4570 ca         1 JK1       0.182100
     20 C26         -0.1920     0.5480    -1.2210 ca         1 JK1       0.005100
     21 C1          -3.5290     1.0680     0.4960 c3         1 JK1       0.145900
     22 N1          -2.4160     7.3400    -8.6710 nc         1 JK1      -0.498800
     23 C2           2.4620     0.7630    -3.8620 c3         1 JK1       0.145900
     24 O2          -4.5130     2.3930    -3.9010 o          1 JK1      -0.579100
     25 N3           1.1200     6.8530    -9.1460 ns         1 JK1      -0.395100
     26 O3          -2.1710     0.6880     0.2080 os         1 JK1      -0.329600
     27 C4           0.0800     6.3330    -3.8920 ca         1 JK1      -0.125000
     28 N4          -2.2600     2.6880    -4.2710 ns         1 JK1      -0.143000
     29 N5          -2.1520     6.0920    -8.1400 na         1 JK1       0.217000
     30 O5           0.5900    -0.1540    -0.3010 os         1 JK1      -0.331100
     31 C9           1.0070     7.1140    -6.0020 ca         1 JK1      -0.146000
     32 C12         -1.2180     7.7010    -9.0960 cd         1 JK1       0.241900
     33 C13         -2.8780     4.5480    -6.3870 ca         1 JK1      -0.109000
     34 C14         -2.2270     1.6750    -2.0070 ca         1 JK1      -0.266500
     35 C21         -0.2260     6.7270    -8.8150 cd         1 JK1      -0.060400
     36 HN2          2.9580     4.8640    -7.3300 hn         1 JK1       0.167000
     37 H3          -0.1140     0.2890     1.6260 h1         1 JK1       0.035367
     38 H3A         -0.7040    -1.2530     0.9340 h1         1 JK1       0.035367
     39 H3B          0.9650    -1.1130     1.5150 h1         1 JK1       0.035367
     40 H5           0.4220     4.2510    -3.4270 ha         1 JK1       0.114500
     41 H6          -0.0670     8.3710    -4.6050 ha         1 JK1       0.114500
     42 H7          -6.5360     4.7630    -7.7050 ha         1 JK1       0.128000
     43 H8           1.6480     3.7860    -5.5430 ha         1 JK1       0.121500
     44 H10         -6.0220     3.3390    -5.7520 ha         1 JK1       0.142000
     45 H11         -4.7450     6.0420    -8.8400 ha         1 JK1       0.146000
     46 H15          0.1730     1.8030    -4.4030 ha         1 JK1       0.135500
     47 H16         -0.4780     4.7000    -7.8720 h4         1 JK1       0.168000
     48 H1          -3.8110     0.7330     1.5020 h1         1 JK1       0.044700
     49 H1A         -3.6460     2.1590     0.4570 h1         1 JK1       0.044700
     50 H1B         -4.2230     0.6110    -0.2210 h1         1 JK1       0.044700
     51 H2           1.9730     0.3200    -4.7380 h1         1 JK1       0.044700
     52 H2A          2.5380     1.8480    -4.0090 h1         1 JK1       0.044700
     53 H2B          3.4800     0.3580    -3.8010 h1         1 JK1       0.044700
     54 HN3          1.3670     7.4950    -9.8890 hn         1 JK1       0.337500
     55 H4          -0.4610     6.5320    -2.9690 ha         1 JK1       0.120000
     56 HN4         -1.6240     3.1190    -4.9270 hn         1 JK1       0.154000
     57 H9           1.1890     7.9330    -6.6930 ha         1 JK1       0.121500
     58 H12         -1.0920     8.6630    -9.5770 h4         1 JK1       0.047100
     59 H13         -1.8570     4.5230    -6.0140 ha         1 JK1       0.122000
     60 H14         -3.2400     2.0180    -1.8370 ha         1 JK1       0.135500
     61 C18         -3.6040     2.9010    -4.5500 c          1 JK1       0.620700
@<TRIPOS>BOND
     1     1    13 2   
     2     2    13 1   
     3     2    14 1   
     4     2    36 1   
     5     3    30 1   
     6     3    37 1   
     7     3    38 1   
     8     3    39 1   
     9     4    19 1   
    10     4    23 1   
    11     5     8 ar  
    12     5    27 ar  
    13     5    40 1   
    14     6    27 ar  
    15     6    31 ar  
    16     6    41 1   
    17     7     9 ar  
    18     7    10 ar  
    19     7    42 1   
    20     8    14 ar  
    21     8    43 1   
    22     9    16 ar  
    23     9    44 1   
    24    10    17 ar  
    25    10    45 1   
    26    11    15 ar  
    27    11    19 ar  
    28    11    46 1   
    29    12    29 1   
    30    12    35 2   
    31    12    47 1   
    32    13    25 1   
    33    14    31 ar  
    34    15    28 1   
    35    15    34 ar  
    36    16    33 ar  
    37    16    61 1   
    38    17    29 1   
    39    17    33 ar  
    40    18    20 ar  
    41    18    26 1   
    42    18    34 ar  
    43    19    20 ar  
    44    20    30 1   
    45    21    26 1   
    46    21    48 1   
    47    21    49 1   
    48    21    50 1   
    49    22    29 1   
    50    22    32 2   
    51    23    51 1   
    52    23    52 1   
    53    23    53 1   
    54    24    61 2   
    55    25    35 1   
    56    25    54 1   
    57    27    55 1   
    58    28    56 1   
    59    28    61 1   
    60    31    57 1   
    61    32    35 1   
    62    32    58 1   
    63    33    59 1   
    64    34    60 1   
@<TRIPOS>SUBSTRUCTURE
     1 JK1         1 TEMP              0 ****  ****    0 ROOT
