@<TRIPOS>MOLECULE
JK2
   63    67     1     0     0
SMALL
No Charge or Current Charge


@<TRIPOS>ATOM
      1 C12          3.3780     1.3390    -0.4300 ca         1 JK2      -0.091000
      2 C13          3.6530    -0.7280     2.4890 cc         1 JK2       0.356800
      3 C14         -6.1980     1.0610    -0.2750 ca         1 JK2      -0.272500
      4 C16         -0.2590     0.2490     1.1120 ca         1 JK2      -0.052000
      5 C18         -2.7240    -0.0590     0.6150 c          1 JK2       0.622700
      6 C26          5.7010     0.5190    -0.4870 ca         1 JK2       0.289000
      7 C27         -5.2470     0.1240     0.1510 ca         1 JK2       0.050000
      8 C31          8.0360    -0.3750    -1.1350 ca         1 JK2       0.290000
      9 C35          4.2080    -0.1300     1.2970 ca         1 JK2      -0.192900
     10 C36          3.2050     0.6030     0.7500 ca         1 JK2      -0.057200
     11 C28          9.3350     0.0770    -1.4820 ca         1 JK2       0.102000
     12 C07         10.4220    -0.8130    -1.5090 ca         1 JK2      -0.112000
     13 C04         10.2240    -2.1700    -1.2000 ca         1 JK2      -0.124000
     14 C10          7.8510    -1.7430    -0.8490 ca         1 JK2      -0.149000
     15 C05          8.9390    -2.6350    -0.8760 ca         1 JK2      -0.088000
     16 N21          6.9480     0.5180    -1.1230 nu         1 JK2      -0.993000
     17 C11          4.6510     1.2920    -1.0430 ca         1 JK2      -0.124000
     18 C17          5.4830    -0.1980     0.7150 ca         1 JK2      -0.098000
     19 N37          2.1150     0.4430     1.5810 na         1 JK2       0.162800
     20 N19          2.3660    -0.3860     2.6720 nd         1 JK2      -0.498100
     21 C30          0.8760     1.0440     1.3640 ca         1 JK2       0.030800
     22 C09          0.7510     2.4440     1.3960 ca         1 JK2      -0.109000
     23 C06         -0.4970     3.0440     1.1730 ca         1 JK2      -0.103000
     24 C29         -1.5270     0.8370     0.8850 ca         1 JK2      -0.142600
     25 C08         -1.6300     2.2510     0.9190 ca         1 JK2      -0.097000
     26 O22         -2.6040    -1.2800     0.5870 o          1 JK2      -0.570100
     27 N20         -3.9290     0.5960     0.3950 ns         1 JK2      -0.142000
     28 C15         -5.6420    -1.2110     0.3380 ca         1 JK2      -0.272500
     29 C33         -6.9710    -1.6100     0.0840 ca         1 JK2       0.185100
     30 O24         -7.3750    -2.9240     0.2600 os         1 JK2      -0.322600
     31 C02         -6.4810    -3.9630     0.6980 c3         1 JK2       0.145400
     32 C34         -7.9330    -0.6710    -0.3580 ca         1 JK2      -0.001900
     33 O25         -9.2210    -1.1620    -0.5840 os         1 JK2      -0.323100
     34 C03        -10.3390    -0.3780    -1.0360 c3         1 JK2       0.146900
     35 C32         -7.5370     0.6900    -0.5370 ca         1 JK2       0.185100
     36 O23         -8.4500     1.6400    -0.9620 os         1 JK2      -0.322600
     37 C01         -8.1150     3.0250    -1.1620 c3         1 JK2       0.145400
     38 H12          2.5680     1.9240    -0.8590 ha         1 JK2       0.125000
     39 H13          4.1010    -1.3850     3.2230 h4         1 JK2       0.055800
     40 H16         -0.1460    -0.8330     1.0930 ha         1 JK2       0.158000
     41 H07         11.4130    -0.4510    -1.7700 ha         1 JK2       0.131000
     42 H04         11.0640    -2.8620    -1.2220 ha         1 JK2       0.120000
     43 H10          6.8600    -2.1260    -0.6240 ha         1 JK2       0.126000
     44 H05          8.7830    -3.6880    -0.6520 ha         1 JK2       0.118000
     45 HN21         7.1260     1.3630    -1.6700 hn         1 JK2       0.504000
     46 H11          4.8200     1.8510    -1.9590 ha         1 JK2       0.116000
     47 H17          6.2770    -0.7690     1.1860 ha         1 JK2       0.132000
     48 H09          1.6220     3.0650     1.5940 ha         1 JK2       0.129000
     49 H06         -0.5890     4.1280     1.1980 ha         1 JK2       0.122000
     50 H08         -2.5780     2.7560     0.7520 ha         1 JK2       0.118000
     51 HN20        -3.8610     1.6030     0.4140 hn         1 JK2       0.153000
     52 H15         -4.9210    -1.9370     0.6910 ha         1 JK2       0.136000
     53 H02         -6.0730    -3.7350     1.6910 h1         1 JK2       0.043033
     54 H02A        -7.0140    -4.9200     0.7620 h1         1 JK2       0.043033
     55 H02B        -5.6480    -4.0840    -0.0070 h1         1 JK2       0.043033
     56 H03        -10.5750     0.4200    -0.3200 h1         1 JK2       0.032367
     57 H03A       -10.1360     0.0650    -2.0190 h1         1 JK2       0.032367
     58 H03B       -11.2290    -1.0130    -1.1330 h1         1 JK2       0.032367
     59 H01         -8.9970     3.5830    -1.4990 h1         1 JK2       0.043033
     60 H01A        -7.7630     3.4800    -0.2270 h1         1 JK2       0.043033
     61 H01B        -7.3340     3.1320    -1.9260 h1         1 JK2       0.043033
     62 F38          9.5480     1.3810    -1.7910 f          1 JK2      -0.188000
     63 H14         -5.8730     2.0890    -0.4040 ha         1 JK2       0.136000
@<TRIPOS>BOND
     1     1    10 ar  
     2     1    17 ar  
     3     1    38 1   
     4     2     9 1   
     5     2    20 2   
     6     2    39 1   
     7     3     7 ar  
     8     3    35 ar  
     9     3    63 1   
    10     4    21 ar  
    11     4    24 ar  
    12     4    40 1   
    13     5    24 1   
    14     5    26 2   
    15     5    27 1   
    16     6    16 1   
    17     6    17 ar  
    18     6    18 ar  
    19     7    27 1   
    20     7    28 ar  
    21     8    11 ar  
    22     8    14 ar  
    23     8    16 1   
    24     9    10 ar  
    25     9    18 ar  
    26    10    19 1   
    27    11    12 ar  
    28    11    62 1   
    29    12    13 ar  
    30    12    41 1   
    31    13    15 ar  
    32    13    42 1   
    33    14    15 ar  
    34    14    43 1   
    35    15    44 1   
    36    16    45 1   
    37    17    46 1   
    38    18    47 1   
    39    19    20 1   
    40    19    21 1   
    41    21    22 ar  
    42    22    23 ar  
    43    22    48 1   
    44    23    25 ar  
    45    23    49 1   
    46    24    25 ar  
    47    25    50 1   
    48    27    51 1   
    49    28    29 ar  
    50    28    52 1   
    51    29    30 1   
    52    29    32 ar  
    53    30    31 1   
    54    31    53 1   
    55    31    54 1   
    56    31    55 1   
    57    32    33 1   
    58    32    35 ar  
    59    33    34 1   
    60    34    56 1   
    61    34    57 1   
    62    34    58 1   
    63    35    36 1   
    64    36    37 1   
    65    37    59 1   
    66    37    60 1   
    67    37    61 1   
@<TRIPOS>SUBSTRUCTURE
     1 JK2         1 TEMP              0 ****  ****    0 ROOT
