@<TRIPOS>MOLECULE
JK2
   63    67     1     0     0
SMALL
abcg2


@<TRIPOS>ATOM
      1 C12          3.5680     1.6930    -0.0010 ca         1 JK2      -0.091000
      2 C13          3.2770    -1.4000     1.7540 cc         1 JK2       0.356800
      3 C14         -5.9780     1.0130    -0.7720 ca         1 JK2      -0.272500
      4 C16         -0.4340     0.2050     1.1540 ca         1 JK2      -0.052000
      5 C18         -2.8860     0.0480     0.9660 c          1 JK2       0.622700
      6 C26          5.7880     0.6710    -0.1700 ca         1 JK2       0.289000
      7 C27         -5.1800     0.1740     0.0050 ca         1 JK2       0.050000
      8 C31          7.9870    -0.1700    -0.9590 ca         1 JK2       0.290000
      9 C35          4.0560    -0.4610     1.0230 ca         1 JK2      -0.192900
     10 C36          3.1670     0.5870     0.7530 ca         1 JK2      -0.057200
     11 C28          9.3540     0.1230    -0.9590 ca         1 JK2       0.102000
     12 C07         10.3210    -0.7980    -1.2910 ca         1 JK2      -0.112000
     13 C04          9.9380    -2.0900    -1.6300 ca         1 JK2      -0.124000
     14 C10          7.6270    -1.4700    -1.3230 ca         1 JK2      -0.149000
     15 C05          8.5900    -2.4160    -1.6430 ca         1 JK2      -0.088000
     16 N21          7.0840     0.8260    -0.6440 nu         1 JK2      -0.993000
     17 C11          4.8650     1.7100    -0.4550 ca         1 JK2      -0.124000
     18 C17          5.3820    -0.4170     0.5810 ca         1 JK2      -0.098000
     19 N37          1.9710     0.2280     1.3180 na         1 JK2       0.162800
     20 N19          2.0530    -0.9740     1.9090 nd         1 JK2      -0.498100
     21 C30          0.7490     0.9180     1.3020 ca         1 JK2       0.030800
     22 C09          0.7190     2.3010     1.4460 ca         1 JK2      -0.109000
     23 C06         -0.4960     2.9650     1.4110 ca         1 JK2      -0.103000
     24 C29         -1.6500     0.8770     1.1160 ca         1 JK2      -0.142600
     25 C08         -1.6810     2.2640     1.2440 ca         1 JK2      -0.097000
     26 O22         -2.9320    -1.0890     1.4010 o          1 JK2      -0.570100
     27 N20         -3.9010     0.6580     0.3060 ns         1 JK2      -0.142000
     28 C15         -5.6570    -1.0580     0.4410 ca         1 JK2      -0.272500
     29 C33         -6.9490    -1.4450     0.0840 ca         1 JK2       0.185100
     30 O24         -7.5010    -2.6130     0.4520 os         1 JK2      -0.322600
     31 C02         -6.7340    -3.5150     1.2240 c3         1 JK2       0.145400
     32 C34         -7.7550    -0.6240    -0.7050 ca         1 JK2      -0.001900
     33 O25         -8.9980    -1.0320    -1.0730 os         1 JK2      -0.323100
     34 C03        -10.0300    -0.6330    -0.1810 c3         1 JK2       0.146900
     35 C32         -7.2630     0.6150    -1.1230 ca         1 JK2       0.185100
     36 O23         -8.1010     1.3510    -1.8690 os         1 JK2      -0.322600
     37 C01         -7.6670     2.6180    -2.3240 c3         1 JK2       0.145400
     38 H12          2.8970     2.5040    -0.2480 ha         1 JK2       0.125000
     39 H13          3.5820    -2.3520     2.1610 h4         1 JK2       0.055800
     40 H16         -0.4040    -0.8710     1.0540 ha         1 JK2       0.158000
     41 H07         11.3640    -0.5080    -1.2700 ha         1 JK2       0.131000
     42 H04         10.6880    -2.8270    -1.8830 ha         1 JK2       0.120000
     43 H10          6.5810    -1.7430    -1.3670 ha         1 JK2       0.126000
     44 H05          8.2740    -3.4130    -1.9180 ha         1 JK2       0.118000
     45 HN21         7.3770     1.7730    -0.8190 hn         1 JK2       0.504000
     46 H11          5.1970     2.5480    -1.0550 ha         1 JK2       0.116000
     47 H17          6.0650    -1.2180     0.8310 ha         1 JK2       0.132000
     48 H09          1.6290     2.8600     1.6170 ha         1 JK2       0.129000
     49 H06         -0.5200     4.0390     1.5370 ha         1 JK2       0.122000
     50 H08         -2.6160     2.8090     1.2540 ha         1 JK2       0.118000
     51 HN20        -3.6960     1.5600    -0.0960 hn         1 JK2       0.153000
     52 H15         -5.0360    -1.6970     1.0440 ha         1 JK2       0.136000
     53 H02         -6.4590    -3.0930     2.1940 h1         1 JK2       0.043033
     54 H02A        -7.3610    -4.3880     1.3890 h1         1 JK2       0.043033
     55 H02B        -5.8260    -3.8280     0.7040 h1         1 JK2       0.043033
     56 H03         -9.8600    -1.0100     0.8310 h1         1 JK2       0.032367
     57 H03A       -10.1310     0.4540    -0.1370 h1         1 JK2       0.032367
     58 H03B       -10.9610    -1.0540    -0.5560 h1         1 JK2       0.032367
     59 H01         -8.4870     3.0330    -2.9050 h1         1 JK2       0.043033
     60 H01A        -7.4460     3.2950    -1.4950 h1         1 JK2       0.043033
     61 H01B        -6.7850     2.5420    -2.9640 h1         1 JK2       0.043033
     62 F38          9.7260     1.3750    -0.6240 f          1 JK2      -0.188000
     63 H14         -5.5830     1.9670    -1.0940 ha         1 JK2       0.136000
@<TRIPOS>BOND
     1     1    10 ar  
     2     1    17 ar  
     3     1    38 1   
     4     2     9 1   
     5     2    20 2   
     6     2    39 1   
     7     3     7 ar  
     8     3    35 ar  
     9     3    63 1   
    10     4    21 ar  
    11     4    24 ar  
    12     4    40 1   
    13     5    24 1   
    14     5    26 2   
    15     5    27 1   
    16     6    16 1   
    17     6    17 ar  
    18     6    18 ar  
    19     7    27 1   
    20     7    28 ar  
    21     8    11 ar  
    22     8    14 ar  
    23     8    16 1   
    24     9    10 ar  
    25     9    18 ar  
    26    10    19 1   
    27    11    12 ar  
    28    11    62 1   
    29    12    13 ar  
    30    12    41 1   
    31    13    15 ar  
    32    13    42 1   
    33    14    15 ar  
    34    14    43 1   
    35    15    44 1   
    36    16    45 1   
    37    17    46 1   
    38    18    47 1   
    39    19    20 1   
    40    19    21 1   
    41    21    22 ar  
    42    22    23 ar  
    43    22    48 1   
    44    23    25 ar  
    45    23    49 1   
    46    24    25 ar  
    47    25    50 1   
    48    27    51 1   
    49    28    29 ar  
    50    28    52 1   
    51    29    30 1   
    52    29    32 ar  
    53    30    31 1   
    54    31    53 1   
    55    31    54 1   
    56    31    55 1   
    57    32    33 1   
    58    32    35 ar  
    59    33    34 1   
    60    34    56 1   
    61    34    57 1   
    62    34    58 1   
    63    35    36 1   
    64    36    37 1   
    65    37    59 1   
    66    37    60 1   
    67    37    61 1   
@<TRIPOS>SUBSTRUCTURE
     1 JK2         1 TEMP              0 ****  ****    0 ROOT
