@<TRIPOS>MOLECULE
JK3
   42    44     1     0     0
SMALL
No Charge or Current Charge


@<TRIPOS>ATOM
      1 Cl15        -5.1770     1.9230     0.7000 cl         1 JK3      -0.199000
      2 C01          3.4340     0.7650    -0.7630 cc         1 JK3      -0.101000
      3 C02          3.7360    -0.6100    -0.8460 cc         1 JK3      -0.153000
      4 C03          2.5530    -1.2720    -0.6630 cd         1 JK3       0.176200
      5 O05          1.5030    -0.4080    -0.4660 os         1 JK3      -0.220000
      6 C06          2.0850     0.8440    -0.5350 cd         1 JK3       0.064500
      7 C07          1.2890     2.0950    -0.3740 c          1 JK3       0.548600
      8 O08          1.7690     3.2240    -0.4310 o          1 JK3      -0.574100
      9 C10         -1.1970     2.6250     0.0490 ca         1 JK3       0.002000
     10 C11         -1.1620     4.0370     0.0610 ca         1 JK3      -0.138000
     11 C12         -2.3400     4.7720     0.2680 ca         1 JK3      -0.075000
     12 C13         -3.5600     4.1060     0.4620 ca         1 JK3      -0.132000
     13 C14         -3.6090     2.7020     0.4530 ca         1 JK3       0.128000
     14 C16         -2.4250     1.9470     0.2460 ca         1 JK3       0.200000
     15 N17         -2.4200     0.5240     0.2270 nh         1 JK3      -0.832400
     16 C18         -2.9020    -0.2290    -0.9700 c6         1 JK3       0.200300
     17 C19         -2.2540    -1.6500    -1.0620 c6         1 JK3       0.157800
     18 C20         -2.5370    -0.2570     1.4960 c6         1 JK3       0.200300
     19 C21         -1.8930    -1.6770     1.3630 c6         1 JK3       0.157800
     20 N22         -2.4190    -2.4530     0.1960 n3         1 JK3      -0.709600
     21 C23         -1.8250    -3.8100     0.1150 c3         1 JK3       0.250900
     22 C24         -2.4900    -4.6910    -0.8590 c1         1 JK3      -0.144100
     23 C25         -3.0130    -5.4150    -1.6770 c1         1 JK3      -0.235000
     24 H01          4.1380     1.5860    -0.8630 ha         1 JK3       0.164000
     25 H02          4.7140    -1.0450    -1.0210 ha         1 JK3       0.159000
     26 HN09        -0.2660     0.8270    -0.1370 hn         1 JK3       0.197000
     27 H11         -0.2330     4.5790    -0.0880 ha         1 JK3       0.152000
     28 H12         -2.3080     5.8600     0.2760 ha         1 JK3       0.121000
     29 H13         -4.4710     4.6780     0.6210 ha         1 JK3       0.132000
     30 H18         -3.9950    -0.3400    -0.9270 h1         1 JK3       0.049950
     31 H18A        -2.6640     0.3260    -1.8890 h1         1 JK3       0.049950
     32 H19         -2.7020    -2.1720    -1.9190 h1         1 JK3       0.041450
     33 H19A        -1.1840    -1.5270    -1.2880 h1         1 JK3       0.041450
     34 H20         -2.0410     0.2780     2.3200 h1         1 JK3       0.049950
     35 H20A        -3.5950    -0.3720     1.7700 h1         1 JK3       0.049950
     36 H21         -0.8040    -1.5540     1.2700 h1         1 JK3       0.041450
     37 H21A        -2.0730    -2.2270     2.2980 h1         1 JK3       0.041450
     38 H23         -0.7590    -3.7440    -0.1450 h1         1 JK3       0.048200
     39 H23A        -1.8860    -4.3020     1.0950 h1         1 JK3       0.048200
     40 H25         -3.4880    -6.0470    -2.4020 ha         1 JK3       0.255000
     41 N09         -0.0480     1.8160    -0.1560 ns         1 JK3      -0.132000
     42 Br04         2.2500    -3.1320    -0.6580 br         1 JK3      -0.084200
@<TRIPOS>BOND
     1     1    13 1   
     2     2     3 1   
     3     2     6 2   
     4     2    24 1   
     5     3     4 2   
     6     3    25 1   
     7     4     5 1   
     8     4    42 1   
     9     5     6 1   
    10     6     7 1   
    11     7     8 2   
    12     7    41 1   
    13     9    10 ar  
    14     9    14 ar  
    15     9    41 1   
    16    10    11 ar  
    17    10    27 1   
    18    11    12 ar  
    19    11    28 1   
    20    12    13 ar  
    21    12    29 1   
    22    13    14 ar  
    23    14    15 1   
    24    15    16 1   
    25    15    18 1   
    26    16    17 1   
    27    16    30 1   
    28    16    31 1   
    29    17    20 1   
    30    17    32 1   
    31    17    33 1   
    32    18    19 1   
    33    18    34 1   
    34    18    35 1   
    35    19    20 1   
    36    19    36 1   
    37    19    37 1   
    38    20    21 1   
    39    21    22 1   
    40    21    38 1   
    41    21    39 1   
    42    22    23 3   
    43    23    40 1   
    44    26    41 1   
@<TRIPOS>SUBSTRUCTURE
     1 JK3         1 TEMP              0 ****  ****    0 ROOT
