@<TRIPOS>MOLECULE
JK3
   42    44     1     0     0
SMALL
abcg2


@<TRIPOS>ATOM
      1 CL15        -5.0480     1.7400     0.5800 cl         1 JK3      -0.199000
      2 C01          3.4980     0.9260    -0.7630 cc         1 JK3      -0.101000
      3 C02          3.8630    -0.4440    -0.8590 cc         1 JK3      -0.153000
      4 C03          2.7110    -1.1330    -0.6660 cd         1 JK3       0.176200
      5 O05          1.6780    -0.3120    -0.4630 os         1 JK3      -0.220000
      6 C06          2.1620     0.9550    -0.5220 cd         1 JK3       0.064500
      7 C07          1.2480     2.0910    -0.3410 c          1 JK3       0.548600
      8 O08          1.6780     3.2310    -0.3970 o          1 JK3      -0.574100
      9 C10         -1.1590     2.5440     0.0550 ca         1 JK3       0.002000
     10 C11         -1.1490     3.9370     0.0770 ca         1 JK3      -0.138000
     11 C12         -2.3410     4.6220     0.2560 ca         1 JK3      -0.075000
     12 C13         -3.5420     3.9510     0.4110 ca         1 JK3      -0.132000
     13 C14         -3.5370     2.5640     0.3880 ca         1 JK3       0.128000
     14 C16         -2.3680     1.8320     0.2170 ca         1 JK3       0.200000
     15 N17         -2.2810     0.4230     0.1910 nh         1 JK3      -0.832400
     16 C18         -2.8440    -0.2730    -0.9560 c6         1 JK3       0.200300
     17 C19         -2.2450    -1.6650    -1.0340 c6         1 JK3       0.157800
     18 C20         -2.4810    -0.2870     1.4450 c6         1 JK3       0.200300
     19 C21         -1.8920    -1.6800     1.3290 c6         1 JK3       0.157800
     20 N22         -2.4790    -2.3860     0.2040 n3         1 JK3      -0.709600
     21 C23         -1.9910    -3.7510     0.1450 c3         1 JK3       0.250900
     22 C24         -2.7300    -4.5640    -0.8180 c1         1 JK3      -0.144100
     23 C25         -3.3190    -5.2440    -1.6150 c1         1 JK3      -0.235000
     24 H01          4.1500     1.7780    -0.8640 ha         1 JK3       0.164000
     25 H02          4.8400    -0.8570    -1.0440 ha         1 JK3       0.159000
     26 HN09        -0.2960     0.7580    -0.0950 hn         1 JK3       0.197000
     27 H11         -0.2310     4.4880    -0.0430 ha         1 JK3       0.152000
     28 H12         -2.3310     5.7030     0.2740 ha         1 JK3       0.121000
     29 H13         -4.4670     4.4940     0.5490 ha         1 JK3       0.132000
     30 H18         -3.9360    -0.3520    -0.9010 h1         1 JK3       0.049950
     31 H18A        -2.5920     0.2750    -1.8640 h1         1 JK3       0.049950
     32 H19         -2.7150    -2.2020    -1.8600 h1         1 JK3       0.041450
     33 H19A        -1.1680    -1.5900    -1.2620 h1         1 JK3       0.041450
     34 H20         -1.9720     0.2530     2.2450 h1         1 JK3       0.049950
     35 H20A        -3.5410    -0.3630     1.7170 h1         1 JK3       0.049950
     36 H21         -0.7940    -1.6050     1.2390 h1         1 JK3       0.041450
     37 H21A        -2.1050    -2.2310     2.2480 h1         1 JK3       0.041450
     38 H23         -0.9170    -3.8040    -0.1020 h1         1 JK3       0.048200
     39 H23A        -2.1000    -4.2020     1.1350 h1         1 JK3       0.048200
     40 H25         -3.8450    -5.8420    -2.3240 ha         1 JK3       0.255000
     41 N09         -0.0400     1.7430    -0.1230 ns         1 JK3      -0.132000
     42 BR04         2.3620    -2.9410    -0.6420 br         1 JK3      -0.084200
@<TRIPOS>BOND
     1     1    13 1   
     2     2     3 1   
     3     2     6 2   
     4     2    24 1   
     5     3     4 2   
     6     3    25 1   
     7     4     5 1   
     8     4    42 1   
     9     5     6 1   
    10     6     7 1   
    11     7     8 2   
    12     7    41 1   
    13     9    10 ar  
    14     9    14 ar  
    15     9    41 1   
    16    10    11 ar  
    17    10    27 1   
    18    11    12 ar  
    19    11    28 1   
    20    12    13 ar  
    21    12    29 1   
    22    13    14 ar  
    23    14    15 1   
    24    15    16 1   
    25    15    18 1   
    26    16    17 1   
    27    16    30 1   
    28    16    31 1   
    29    17    20 1   
    30    17    32 1   
    31    17    33 1   
    32    18    19 1   
    33    18    34 1   
    34    18    35 1   
    35    19    20 1   
    36    19    36 1   
    37    19    37 1   
    38    20    21 1   
    39    21    22 1   
    40    21    38 1   
    41    21    39 1   
    42    22    23 3   
    43    23    40 1   
    44    26    41 1   
@<TRIPOS>SUBSTRUCTURE
     1 JK3         1 TEMP              0 ****  ****    0 ROOT
