@<TRIPOS>MOLECULE
JK4
   56    58     1     0     0
SMALL
No Charge or Current Charge


@<TRIPOS>ATOM
      1 N01         -5.6060     0.8090    -1.1230 nb         1 JK4      -0.757000
      2 C02         -6.3530     1.8590    -0.8210 ca         1 JK4       0.597900
      3 N02         -7.5750     1.7480    -1.3450 nv         1 JK4      -1.054900
      4 C03         -5.9420     2.9440    -0.0430 ca         1 JK4      -0.232000
      5 C04         -4.6330     2.9450     0.4610 ca         1 JK4       0.001700
      6 C05         -3.8220     1.8410     0.1500 ca         1 JK4      -0.214000
      7 C06         -4.3430     0.7980    -0.6410 ca         1 JK4       0.393300
      8 C07         -4.1150     4.0880     1.3160 c3         1 JK4      -0.054800
      9 C08         -3.4910    -0.4160    -0.9860 c3         1 JK4      -0.106700
     10 O09         -1.5020    -2.4830    -0.7640 os         1 JK4      -0.460000
     11 N1          -3.2840    -2.6220     2.1090 n7         1 JK4      -0.820400
     12 C10         -0.6160    -3.5300    -1.2220 c3         1 JK4       0.158600
     13 C11          0.7100    -2.8740    -1.6860 c3         1 JK4       0.162800
     14 N12          1.3210    -2.0840    -0.5940 n7         1 JK4      -0.850400
     15 C13          2.4620    -1.2150    -0.9930 c3         1 JK4       0.115800
     16 C14          3.0080    -0.3290     0.1760 c3         1 JK4       0.247300
     17 F15          1.9710     0.3960     0.6610 f          1 JK4      -0.105500
     18 F16          3.3970    -1.1540     1.1790 f          1 JK4      -0.105500
     19 C2          -2.6770    -3.5610     1.1180 c5         1 JK4       0.098800
     20 C21          4.1710     0.6090    -0.2110 ca         1 JK4      -0.179300
     21 C22          4.7250     1.4730     0.7670 ca         1 JK4       0.179000
     22 F22          4.2400     1.4750     2.0320 f          1 JK4      -0.140000
     23 C23          5.7870     2.3400     0.4440 ca         1 JK4       0.127000
     24 F23          6.3090     3.1610     1.3860 f          1 JK4      -0.156000
     25 C24          6.3140     2.3630    -0.8540 ca         1 JK4      -0.109000
     26 C25          5.7780     1.5130    -1.8350 ca         1 JK4      -0.108000
     27 C26          4.7180     0.6440    -1.5200 ca         1 JK4      -0.075000
     28 C3          -2.8170    -2.8790    -0.2930 c5         1 JK4       0.140300
     29 C4          -3.6360    -1.5890     0.0240 c5         1 JK4      -0.088700
     30 C5          -3.1500    -1.2970     1.4660 c5         1 JK4       0.132800
     31 HN02        -7.8080     0.8200    -1.6760 hn         1 JK4       0.467000
     32 HN0A        -8.3230     2.2780    -0.9130 hn         1 JK4       0.467000
     33 H03         -6.6220     3.7650     0.1620 ha         1 JK4       0.118000
     34 H05         -2.8020     1.7870     0.5180 ha         1 JK4       0.124000
     35 H07         -4.2660     3.8780     2.3820 hc         1 JK4       0.047033
     36 H07A        -3.0430     4.2520     1.1550 hc         1 JK4       0.047033
     37 H07B        -4.6310     5.0280     1.0830 hc         1 JK4       0.047033
     38 H08         -3.7490    -0.7700    -1.9910 hc         1 JK4       0.064700
     39 H08A        -2.4420    -0.1020    -1.0480 hc         1 JK4       0.064700
     40 HN1         -4.2880    -2.8330     2.1810 hn         1 JK4       0.396000
     41 H10         -0.4020    -4.2490    -0.4210 h1         1 JK4       0.033700
     42 H10A        -1.0620    -4.0760    -2.0630 h1         1 JK4       0.033700
     43 H11          1.4000    -3.6560    -2.0290 h1         1 JK4       0.037700
     44 H11A         0.4860    -2.2280    -2.5460 h1         1 JK4       0.037700
     45 HN12         0.5710    -1.4860    -0.2200 hn         1 JK4       0.438000
     46 H13          3.2850    -1.8360    -1.3740 h1         1 JK4       0.049700
     47 H13A         2.1500    -0.5480    -1.8080 h1         1 JK4       0.049700
     48 H2          -1.6210    -3.7320     1.3670 h1         1 JK4       0.063200
     49 H2'A        -3.1780    -4.5390     1.1450 h1         1 JK4       0.063200
     50 H24          7.1340     3.0340    -1.0980 ha         1 JK4       0.139000
     51 H25          6.1850     1.5260    -2.8440 ha         1 JK4       0.126000
     52 H26          4.3380     0.0040    -2.3120 ha         1 JK4       0.123000
     53 H3          -3.3040    -3.5160    -1.0440 h1         1 JK4       0.033700
     54 H4          -4.7040    -1.8380     0.0400 hc         1 JK4       0.065700
     55 H5          -3.7650    -0.5360     1.9680 h1         1 JK4       0.060700
     56 H5'A        -2.1050    -0.9520     1.4770 h1         1 JK4       0.060700
@<TRIPOS>BOND
     1     1     2 ar  
     2     1     7 ar  
     3     2     3 1   
     4     2     4 ar  
     5     3    31 1   
     6     3    32 1   
     7     4     5 ar  
     8     4    33 1   
     9     5     6 ar  
    10     5     8 1   
    11     6     7 ar  
    12     6    34 1   
    13     7     9 1   
    14     8    35 1   
    15     8    36 1   
    16     8    37 1   
    17     9    29 1   
    18     9    38 1   
    19     9    39 1   
    20    10    12 1   
    21    10    28 1   
    22    11    19 1   
    23    11    30 1   
    24    11    40 1   
    25    12    13 1   
    26    12    41 1   
    27    12    42 1   
    28    13    14 1   
    29    13    43 1   
    30    13    44 1   
    31    14    15 1   
    32    14    45 1   
    33    15    16 1   
    34    15    46 1   
    35    15    47 1   
    36    16    17 1   
    37    16    18 1   
    38    16    20 1   
    39    19    28 1   
    40    19    48 1   
    41    19    49 1   
    42    20    21 ar  
    43    20    27 ar  
    44    21    22 1   
    45    21    23 ar  
    46    23    24 1   
    47    23    25 ar  
    48    25    26 ar  
    49    25    50 1   
    50    26    27 ar  
    51    26    51 1   
    52    27    52 1   
    53    28    29 1   
    54    28    53 1   
    55    29    30 1   
    56    29    54 1   
    57    30    55 1   
    58    30    56 1   
@<TRIPOS>SUBSTRUCTURE
     1 JK4         1 TEMP              0 ****  ****    0 ROOT
