@<TRIPOS>MOLECULE
JK4
   56    58     1     0     0
SMALL
abcg2


@<TRIPOS>ATOM
      1 N01         -5.3630     0.7960    -1.1710 nb         1 JK4      -0.757000
      2 C02         -6.3690     1.6580    -1.0770 ca         1 JK4       0.597900
      3 N02         -7.4060     1.5010    -1.9520 nv         1 JK4      -1.054900
      4 C03         -6.3650     2.7200    -0.1550 ca         1 JK4      -0.232000
      5 C04         -5.2770     2.8790     0.6780 ca         1 JK4       0.001700
      6 C05         -4.2180     1.9710     0.5600 ca         1 JK4      -0.214000
      7 C06         -4.3070     0.9500    -0.3690 ca         1 JK4       0.393300
      8 C07         -5.2260     3.9800     1.6920 c3         1 JK4      -0.054800
      9 C08         -3.2170    -0.0760    -0.5060 c3         1 JK4      -0.106700
     10 O09         -1.4180    -2.1150    -0.5980 os         1 JK4      -0.460000
     11 N1          -3.7360    -2.7660     2.0330 n7         1 JK4      -0.820400
     12 C10         -0.5180    -3.1310    -0.9710 c3         1 JK4       0.158600
     13 C11          0.7160    -2.4890    -1.5620 c3         1 JK4       0.162800
     14 N12          1.4080    -1.6810    -0.5750 n7         1 JK4      -0.850400
     15 C13          2.5660    -1.0180    -1.1220 c3         1 JK4       0.115800
     16 C14          3.3870    -0.3780    -0.0180 c3         1 JK4       0.247300
     17 F15          2.5780     0.4730     0.6900 f          1 JK4      -0.105500
     18 F16          3.7730    -1.3350     0.8750 f          1 JK4      -0.105500
     19 C2          -2.5750    -3.2210     1.2840 c5         1 JK4       0.098800
     20 C21          4.6100     0.3840    -0.4640 ca         1 JK4      -0.179300
     21 C22          5.3930     1.0410     0.4760 ca         1 JK4       0.179000
     22 F22          5.0770     1.0190     1.7710 f          1 JK4      -0.140000
     23 C23          6.5260     1.7380     0.0950 ca         1 JK4       0.127000
     24 F23          7.2420     2.3540     1.0380 f          1 JK4      -0.156000
     25 C24          6.9120     1.7970    -1.2270 ca         1 JK4      -0.109000
     26 C25          6.1420     1.1410    -2.1750 ca         1 JK4      -0.108000
     27 C26          5.0050     0.4430    -1.7970 ca         1 JK4      -0.075000
     28 C3          -2.6550    -2.5870    -0.1260 c5         1 JK4       0.140300
     29 C4          -3.6700    -1.4290     0.0420 c5         1 JK4      -0.088700
     30 C5          -3.9580    -1.4110     1.5510 c5         1 JK4       0.132800
     31 HN02        -7.4920     0.5920    -2.3770 hn         1 JK4       0.467000
     32 HN0A        -8.2860     1.9250    -1.7100 hn         1 JK4       0.467000
     33 H03         -7.2080     3.3970    -0.1050 ha         1 JK4       0.118000
     34 H05         -3.3430     2.0580     1.1940 ha         1 JK4       0.124000
     35 H07         -5.2030     3.5710     2.7040 hc         1 JK4       0.047033
     36 H07A        -4.3240     4.5820     1.5730 hc         1 JK4       0.047033
     37 H07B        -6.0880     4.6410     1.6160 hc         1 JK4       0.047033
     38 H08         -2.9470    -0.1680    -1.5610 hc         1 JK4       0.064700
     39 H08A        -2.3270     0.2630     0.0280 hc         1 JK4       0.064700
     40 HN1         -4.5340    -3.3350     1.7750 hn         1 JK4       0.396000
     41 H10         -0.2330    -3.7510    -0.1110 h1         1 JK4       0.033700
     42 H10A        -0.9730    -3.7980    -1.7170 h1         1 JK4       0.033700
     43 H11          1.3820    -3.2880    -1.8970 h1         1 JK4       0.037700
     44 H11A         0.4320    -1.9190    -2.4610 h1         1 JK4       0.037700
     45 HN12         0.7620    -0.9890    -0.2170 hn         1 JK4       0.438000
     46 H13          3.1920    -1.7560    -1.6290 h1         1 JK4       0.049700
     47 H13A         2.3210    -0.2470    -1.8680 h1         1 JK4       0.049700
     48 H2          -1.6650    -2.8560     1.7740 h1         1 JK4       0.063200
     49 H2'A        -2.5270    -4.3100     1.2720 h1         1 JK4       0.063200
     50 H24          7.8020     2.3450    -1.5060 ha         1 JK4       0.139000
     51 H25          6.4300     1.1750    -3.2160 ha         1 JK4       0.126000
     52 H26          4.4260    -0.0570    -2.5600 ha         1 JK4       0.123000
     53 H3          -3.0550    -3.3190    -0.8420 h1         1 JK4       0.033700
     54 H4          -4.5900    -1.7110    -0.4780 hc         1 JK4       0.065700
     55 H5          -4.9660    -1.0710     1.7920 h1         1 JK4       0.060700
     56 H5'A        -3.2590    -0.7340     2.0560 h1         1 JK4       0.060700
@<TRIPOS>BOND
     1     1     2 ar  
     2     1     7 ar  
     3     2     3 1   
     4     2     4 ar  
     5     3    31 1   
     6     3    32 1   
     7     4     5 ar  
     8     4    33 1   
     9     5     6 ar  
    10     5     8 1   
    11     6     7 ar  
    12     6    34 1   
    13     7     9 1   
    14     8    35 1   
    15     8    36 1   
    16     8    37 1   
    17     9    29 1   
    18     9    38 1   
    19     9    39 1   
    20    10    12 1   
    21    10    28 1   
    22    11    19 1   
    23    11    30 1   
    24    11    40 1   
    25    12    13 1   
    26    12    41 1   
    27    12    42 1   
    28    13    14 1   
    29    13    43 1   
    30    13    44 1   
    31    14    15 1   
    32    14    45 1   
    33    15    16 1   
    34    15    46 1   
    35    15    47 1   
    36    16    17 1   
    37    16    18 1   
    38    16    20 1   
    39    19    28 1   
    40    19    48 1   
    41    19    49 1   
    42    20    21 ar  
    43    20    27 ar  
    44    21    22 1   
    45    21    23 ar  
    46    23    24 1   
    47    23    25 ar  
    48    25    26 ar  
    49    25    50 1   
    50    26    27 ar  
    51    26    51 1   
    52    27    52 1   
    53    28    29 1   
    54    28    53 1   
    55    29    30 1   
    56    29    54 1   
    57    30    55 1   
    58    30    56 1   
@<TRIPOS>SUBSTRUCTURE
     1 JK4         1 TEMP              0 ****  ****    0 ROOT
