@<TRIPOS>MOLECULE
JK5
   56    58     1     0     0
SMALL
abcg2


@<TRIPOS>ATOM
      1 N01         -5.7890     0.6720    -1.2020 nb         1 JK5      -0.758000
      2 C02         -6.8100     1.5110    -1.0740 ca         1 JK5       0.599900
      3 N02         -7.8860     1.3080    -1.8910 nv         1 JK5      -1.055900
      4 C03         -6.7840     2.5950    -0.1790 ca         1 JK5      -0.232000
      5 C04         -5.6600     2.7990     0.5930 ca         1 JK5       0.001700
      6 C05         -4.5870     1.9120     0.4440 ca         1 JK5      -0.214000
      7 C06         -4.6970     0.8690    -0.4580 ca         1 JK5       0.393300
      8 C07         -5.5850     3.9260     1.5770 c3         1 JK5      -0.053800
      9 C08         -3.5860    -0.1270    -0.6400 c3         1 JK5      -0.104700
     10 O09         -1.6820    -2.0980    -0.5760 os         1 JK5      -0.463000
     11 N1          -4.1060    -2.9880     1.7480 n7         1 JK5      -0.822400
     12 C10         -0.7420    -3.0230    -1.0660 c3         1 JK5       0.156600
     13 C11          0.5330    -2.2820    -1.3950 c3         1 JK5       0.161800
     14 N12          1.1350    -1.7040    -0.2050 n7         1 JK5      -0.847400
     15 C13          2.2790    -0.8870    -0.5250 c3         1 JK5       0.111800
     16 C14          3.0710    -0.5070     0.7100 c3         1 JK5       0.242300
     17 F15          2.2500     0.1170     1.6070 f          1 JK5      -0.107500
     18 F16          3.5190    -1.6260     1.3440 f          1 JK5      -0.107500
     19 C2          -3.0640    -3.5300     0.8800 c5         1 JK5       0.101800
     20 C21          4.2370     0.3900     0.3860 ca         1 JK5      -0.128300
     21 C22          4.0760     1.7690     0.4070 ca         1 JK5      -0.122000
     22 C23          5.1480     2.5590     0.0460 ca         1 JK5       0.179000
     23 F23          5.0030     3.8880     0.0660 f          1 JK5      -0.169000
     24 C24          6.3690     2.0380    -0.3350 ca         1 JK5      -0.133000
     25 C25          6.4960     0.6590    -0.3480 ca         1 JK5       0.136000
     26 CL25         8.0050    -0.0360    -0.8220 cl         1 JK5      -0.183000
     27 C26          5.4490    -0.1760     0.0080 ca         1 JK5      -0.090000
     28 C3          -2.9700    -2.6310    -0.3830 c5         1 JK5       0.142300
     29 C4          -3.9780    -1.5010    -0.1040 c5         1 JK5      -0.090700
     30 C5          -4.1710    -1.5730     1.4150 c5         1 JK5       0.135800
     31 HN02        -7.9710     0.3890    -2.2930 hn         1 JK5       0.468000
     32 HN0A        -8.7620     1.7200    -1.6180 hn         1 JK5       0.468000
     33 H03         -7.6390     3.2560    -0.1030 ha         1 JK5       0.119000
     34 H05         -3.6840     2.0350     1.0290 ha         1 JK5       0.123000
     35 H07         -5.5230     3.5430     2.5970 hc         1 JK5       0.047033
     36 H07A        -4.6930     4.5320     1.4110 hc         1 JK5       0.047033
     37 H07B        -6.4550     4.5770     1.5140 hc         1 JK5       0.047033
     38 H08         -3.3500    -0.2000    -1.7050 hc         1 JK5       0.063200
     39 H08A        -2.6860     0.2300    -0.1370 hc         1 JK5       0.063200
     40 HN1         -4.9900    -3.4130     1.4970 hn         1 JK5       0.396000
     41 H10         -0.5350    -3.8130    -0.3310 h1         1 JK5       0.034200
     42 H10A        -1.1150    -3.5140    -1.9760 h1         1 JK5       0.034200
     43 H11          1.2360    -2.9930    -1.8370 h1         1 JK5       0.038700
     44 H11A         0.3190    -1.5300    -2.1700 h1         1 JK5       0.038700
     45 HN12         0.4390    -1.1370     0.2640 hn         1 JK5       0.436000
     46 H13          2.9500    -1.4460    -1.1830 h1         1 JK5       0.051700
     47 H13A         2.0270     0.0380    -1.0660 h1         1 JK5       0.051700
     48 H2          -2.1010    -3.4980     1.4010 h1         1 JK5       0.060700
     49 H2'A        -3.2710    -4.5740     0.6470 h1         1 JK5       0.060700
     50 H22          3.1410     2.2320     0.6930 ha         1 JK5       0.149000
     51 H24          7.1880     2.6880    -0.6130 ha         1 JK5       0.151000
     52 H26          5.5830    -1.2480    -0.0200 ha         1 JK5       0.147000
     53 H3          -3.2650    -3.1850    -1.2850 h1         1 JK5       0.038700
     54 H4          -4.9240    -1.7900    -0.5720 hc         1 JK5       0.064700
     55 H5          -5.1120    -1.1370     1.7530 h1         1 JK5       0.061700
     56 H5'A        -3.3610    -1.0370     1.9240 h1         1 JK5       0.061700
@<TRIPOS>BOND
     1     1     2 ar  
     2     1     7 ar  
     3     2     3 1   
     4     2     4 ar  
     5     3    31 1   
     6     3    32 1   
     7     4     5 ar  
     8     4    33 1   
     9     5     6 ar  
    10     5     8 1   
    11     6     7 ar  
    12     6    34 1   
    13     7     9 1   
    14     8    35 1   
    15     8    36 1   
    16     8    37 1   
    17     9    29 1   
    18     9    38 1   
    19     9    39 1   
    20    10    12 1   
    21    10    28 1   
    22    11    19 1   
    23    11    30 1   
    24    11    40 1   
    25    12    13 1   
    26    12    41 1   
    27    12    42 1   
    28    13    14 1   
    29    13    43 1   
    30    13    44 1   
    31    14    15 1   
    32    14    45 1   
    33    15    16 1   
    34    15    46 1   
    35    15    47 1   
    36    16    17 1   
    37    16    18 1   
    38    16    20 1   
    39    19    28 1   
    40    19    48 1   
    41    19    49 1   
    42    20    21 ar  
    43    20    27 ar  
    44    21    22 ar  
    45    21    50 1   
    46    22    23 1   
    47    22    24 ar  
    48    24    25 ar  
    49    24    51 1   
    50    25    26 1   
    51    25    27 ar  
    52    27    52 1   
    53    28    29 1   
    54    28    53 1   
    55    29    30 1   
    56    29    54 1   
    57    30    55 1   
    58    30    56 1   
@<TRIPOS>SUBSTRUCTURE
     1 JK5         1 TEMP              0 ****  ****    0 ROOT
