@<TRIPOS>MOLECULE
JK5
   56    58     1     0     0
SMALL
No Charge or Current Charge


@<TRIPOS>ATOM
      1 N01         -5.8810     0.8210    -1.2390 nb         1 JK5      -0.758000
      2 C02         -6.6790     1.8230    -0.9010 ca         1 JK5       0.599900
      3 N02         -7.8430     1.7490    -1.5480 nv         1 JK5      -1.055900
      4 C03         -6.3690     2.8250     0.0210 ca         1 JK5      -0.232000
      5 C04         -5.1130     2.7910     0.6440 ca         1 JK5       0.001700
      6 C05         -4.2490     1.7390     0.2980 ca         1 JK5      -0.214000
      7 C06         -4.6680     0.7780    -0.6430 ca         1 JK5       0.393300
      8 C07         -4.7040     3.8450     1.6590 c3         1 JK5      -0.053800
      9 C08         -3.7580    -0.3800    -1.0300 c3         1 JK5      -0.104700
     10 O09         -1.7480    -2.4290    -0.8320 os         1 JK5      -0.463000
     11 N1          -3.7910    -2.9010     1.8220 n7         1 JK5      -0.822400
     12 C10         -0.7950    -3.4070    -1.3080 c3         1 JK5       0.156600
     13 C11          0.5510    -2.6860    -1.5680 c3         1 JK5       0.161800
     14 N12          1.0340    -2.0070    -0.3450 n7         1 JK5      -0.847400
     15 C13          2.1830    -1.0800    -0.5370 c3         1 JK5       0.111800
     16 C14          2.5910    -0.3200     0.7620 c3         1 JK5       0.242300
     17 F15          1.5080     0.3380     1.2440 f          1 JK5      -0.107500
     18 F16          2.9320    -1.2210     1.7150 f          1 JK5      -0.107500
     19 C2          -3.0720    -3.7200     0.8010 c5         1 JK5       0.101800
     20 C21          3.7490     0.6470     0.4800 ca         1 JK5      -0.128300
     21 C22          3.5010     1.9940     0.1280 ca         1 JK5      -0.122000
     22 C23          4.5680     2.8670    -0.1410 ca         1 JK5       0.179000
     23 F23          4.3160     4.1510    -0.4730 f          1 JK5      -0.169000
     24 C24          5.8930     2.4150    -0.0700 ca         1 JK5      -0.133000
     25 C25          6.1500     1.0790     0.2680 ca         1 JK5       0.136000
     26 Cl25         7.8100     0.5020     0.3510 cl         1 JK5      -0.183000
     27 C26          5.0890     0.1980     0.5390 ca         1 JK5      -0.090000
     28 C3          -3.0920    -2.8930    -0.5370 c5         1 JK5       0.142300
     29 C4          -3.9690    -1.6560    -0.1680 c5         1 JK5      -0.090700
     30 C5          -3.6290    -1.5130     1.3370 c5         1 JK5       0.135800
     31 HN02        -8.0200     0.8580    -1.9940 hn         1 JK5       0.468000
     32 HN0A        -8.6410     2.2180    -1.1350 hn         1 JK5       0.468000
     33 H03         -7.0850     3.6090     0.2450 ha         1 JK5       0.119000
     34 H05         -3.2660     1.6610     0.7540 ha         1 JK5       0.123000
     35 H07         -4.9490     3.5210     2.6780 hc         1 JK5       0.047033
     36 H07A        -3.6260     4.0400     1.6190 hc         1 JK5       0.047033
     37 H07B        -5.2180     4.7960     1.4770 hc         1 JK5       0.047033
     38 H08         -3.9120    -0.6280    -2.0870 hc         1 JK5       0.063200
     39 H08A        -2.7160    -0.0470    -0.9580 hc         1 JK5       0.063200
     40 HN1         -4.7920    -3.1310     1.7740 hn         1 JK5       0.396000
     41 H10         -0.6400    -4.2040    -0.5690 h1         1 JK5       0.034200
     42 H10A        -1.1450    -3.8680    -2.2410 h1         1 JK5       0.034200
     43 H11          1.2910    -3.4160    -1.9220 h1         1 JK5       0.038700
     44 H11A         0.3950    -1.9550    -2.3740 h1         1 JK5       0.038700
     45 HN12         0.2350    -1.4670     0.0160 hn         1 JK5       0.436000
     46 H13          3.0580    -1.6350    -0.9020 h1         1 JK5       0.051700
     47 H13A         1.9380    -0.3310    -1.3020 h1         1 JK5       0.051700
     48 H2          -2.0400    -3.9040     1.1320 h1         1 JK5       0.060700
     49 H2'A        -3.5510    -4.7020     0.6760 h1         1 JK5       0.060700
     50 H22          2.4840     2.3720     0.0580 ha         1 JK5       0.149000
     51 H24          6.7130     3.0950    -0.2800 ha         1 JK5       0.151000
     52 H26          5.3140    -0.8350     0.7930 ha         1 JK5       0.147000
     53 H3          -3.4890    -3.4530    -1.3950 h1         1 JK5       0.038700
     54 H4          -5.0270    -1.9220    -0.2810 hc         1 JK5       0.064700
     55 H5          -4.3070    -0.8180     1.8540 h1         1 JK5       0.061700
     56 H5'A        -2.5990    -1.1560     1.4850 h1         1 JK5       0.061700
@<TRIPOS>BOND
     1     1     2 ar  
     2     1     7 ar  
     3     2     3 1   
     4     2     4 ar  
     5     3    31 1   
     6     3    32 1   
     7     4     5 ar  
     8     4    33 1   
     9     5     6 ar  
    10     5     8 1   
    11     6     7 ar  
    12     6    34 1   
    13     7     9 1   
    14     8    35 1   
    15     8    36 1   
    16     8    37 1   
    17     9    29 1   
    18     9    38 1   
    19     9    39 1   
    20    10    12 1   
    21    10    28 1   
    22    11    19 1   
    23    11    30 1   
    24    11    40 1   
    25    12    13 1   
    26    12    41 1   
    27    12    42 1   
    28    13    14 1   
    29    13    43 1   
    30    13    44 1   
    31    14    15 1   
    32    14    45 1   
    33    15    16 1   
    34    15    46 1   
    35    15    47 1   
    36    16    17 1   
    37    16    18 1   
    38    16    20 1   
    39    19    28 1   
    40    19    48 1   
    41    19    49 1   
    42    20    21 ar  
    43    20    27 ar  
    44    21    22 ar  
    45    21    50 1   
    46    22    23 1   
    47    22    24 ar  
    48    24    25 ar  
    49    24    51 1   
    50    25    26 1   
    51    25    27 ar  
    52    27    52 1   
    53    28    29 1   
    54    28    53 1   
    55    29    30 1   
    56    29    54 1   
    57    30    55 1   
    58    30    56 1   
@<TRIPOS>SUBSTRUCTURE
     1 JK5         1 TEMP              0 ****  ****    0 ROOT
