@<TRIPOS>MOLECULE
JK7
   36    39     1     0     0
SMALL
abcg2


@<TRIPOS>ATOM
      1 C10          3.9200     0.9620    -0.6510 cy         1 JK7      -0.079400
      2 C13         -2.5000    -1.0970     0.2570 c5         1 JK7       0.162600
      3 C15         -2.5490     1.5380     0.6030 ca         1 JK7      -0.082000
      4 C17         -0.9350     2.6810    -0.8000 ca         1 JK7      -0.109000
      5 O01         -1.6390    -3.0490     1.4730 oh         1 JK7      -0.696000
      6 C02         -1.3540    -1.7330     1.0820 c5         1 JK7       0.129300
      7 C03         -0.2200    -1.7500     0.0290 c5         1 JK7       0.089700
      8 N04          0.9350    -1.0100     0.4680 ns         1 JK7      -0.497900
      9 C05          1.9880    -0.7590    -0.3290 c          1 JK7       0.614100
     10 O06          2.0670    -1.1990    -1.4680 o          1 JK7      -0.604100
     11 C07          3.0630     0.0950     0.2850 cy         1 JK7      -0.173700
     12 C08          2.6790     1.3750     1.0620 cy         1 JK7      -0.079400
     13 C09          3.9110     2.0540     0.4360 cy         1 JK7      -0.093400
     14 C11         -0.9460    -1.1470    -1.2130 c5         1 JK7       0.187600
     15 O12         -2.2610    -1.6570    -1.0310 os         1 JK7      -0.414000
     16 C14         -2.1420     0.3510     0.0340 ca         1 JK7      -0.133300
     17 C16         -1.9370     2.7140     0.1620 ca         1 JK7      -0.112000
     18 C18         -0.5120     1.4710    -1.3530 ca         1 JK7      -0.077000
     19 C19         -1.1390     0.3190    -0.9310 ca         1 JK7      -0.109300
     20 H101         4.8820     0.5640    -0.9710 hc         1 JK7       0.057200
     21 H102         3.3590     1.2700    -1.5350 hc         1 JK7       0.057200
     22 H131        -3.5060    -1.3130     0.6160 h1         1 JK7       0.100700
     23 H171        -0.4780     3.6070    -1.1250 ha         1 JK7       0.115000
     24 H011        -2.2870    -3.0180     2.1830 ho         1 JK7       0.506000
     25 H021        -1.1000    -1.1090     1.9480 h1         1 JK7       0.041700
     26 H031         0.0530    -2.7870    -0.1890 h1         1 JK7       0.099700
     27 H041         0.9130    -0.5860     1.3820 hn         1 JK7       0.316500
     28 H071         3.7010    -0.5420     0.9070 hc         1 JK7       0.078700
     29 H082         1.7480     1.8060     0.6880 hc         1 JK7       0.057200
     30 H081         2.6240     1.3110     2.1490 hc         1 JK7       0.057200
     31 H092         4.7820     1.9820     1.0880 hc         1 JK7       0.051700
     32 H091         3.8030     3.0880     0.1110 hc         1 JK7       0.051700
     33 H111        -0.5380    -1.4340    -2.1780 h1         1 JK7       0.127700
     34 H161        -2.2470     3.6650     0.5750 ha         1 JK7       0.114000
     35 H181         0.2810     1.4460    -2.0910 ha         1 JK7       0.129000
     36 H151        -3.3180     1.5690     1.3640 ha         1 JK7       0.116000
@<TRIPOS>BOND
     1     1    11 1   
     2     1    13 1   
     3     1    20 1   
     4     1    21 1   
     5     2     6 1   
     6     2    15 1   
     7     2    16 1   
     8     2    22 1   
     9     3    16 ar  
    10     3    17 ar  
    11     3    36 1   
    12     4    17 ar  
    13     4    18 ar  
    14     4    23 1   
    15     5     6 1   
    16     5    24 1   
    17     6     7 1   
    18     6    25 1   
    19     7     8 1   
    20     7    14 1   
    21     7    26 1   
    22     8     9 1   
    23     8    27 1   
    24     9    10 2   
    25     9    11 1   
    26    11    12 1   
    27    11    28 1   
    28    12    13 1   
    29    12    29 1   
    30    12    30 1   
    31    13    31 1   
    32    13    32 1   
    33    14    15 1   
    34    14    19 1   
    35    14    33 1   
    36    16    19 ar  
    37    17    34 1   
    38    18    19 ar  
    39    18    35 1   
@<TRIPOS>SUBSTRUCTURE
     1 JK7         1 TEMP              0 ****  ****    0 ROOT
