@<TRIPOS>MOLECULE
JK7
   36    39     1     0     0
SMALL
No Charge or Current Charge


@<TRIPOS>ATOM
      1 C10          4.3640     0.2700    -0.1440 cy         1 JK7      -0.079400
      2 C13         -2.5200    -1.1960     0.1890 c5         1 JK7       0.162600
      3 C15         -2.7980     1.3260     1.0030 ca         1 JK7      -0.082000
      4 C17         -1.3090     2.8790    -0.1810 ca         1 JK7      -0.109000
      5 O01         -1.4950    -3.2520     1.2030 oh         1 JK7      -0.696000
      6 C02         -1.2840    -1.8580     0.9190 c5         1 JK7       0.129300
      7 C03         -0.1560    -1.6580    -0.1880 c5         1 JK7       0.089700
      8 N04          0.8950    -0.8020     0.4160 ns         1 JK7      -0.497900
      9 C05          2.1010    -0.6530    -0.2400 c          1 JK7       0.614100
     10 O06          2.2770    -1.2380    -1.3040 o          1 JK7      -0.604100
     11 C07          3.0050     0.2920     0.6610 cy         1 JK7      -0.173700
     12 C08          2.6950     1.6220    -0.1250 cy         1 JK7      -0.079400
     13 C09          4.2490     1.8340    -0.0480 cy         1 JK7      -0.093400
     14 C11         -0.9190    -0.8280    -1.2950 c5         1 JK7       0.187600
     15 O12         -2.2120    -1.4730    -1.2020 os         1 JK7      -0.414000
     16 C14         -2.2400     0.2910     0.2410 ca         1 JK7      -0.133300
     17 C16         -2.3150     2.6350     0.7860 ca         1 JK7      -0.112000
     18 C18         -0.7710     1.8150    -0.9380 ca         1 JK7      -0.077000
     19 C19         -1.2570     0.5250    -0.6880 ca         1 JK7      -0.109300
     20 H101         5.2180    -0.1710     0.3830 hc         1 JK7       0.057200
     21 H102         4.3810    -0.0900    -1.1790 hc         1 JK7       0.057200
     22 H131        -3.5260    -1.5170     0.4920 h1         1 JK7       0.100700
     23 H171        -0.9510     3.8930    -0.3450 ha         1 JK7       0.115000
     24 H011        -2.1470    -3.3050     1.9400 ho         1 JK7       0.506000
     25 H021        -1.0520    -1.3190     1.8500 h1         1 JK7       0.041700
     26 H031         0.2190    -2.6160    -0.5750 h1         1 JK7       0.099700
     27 H041         0.7760    -0.2890     1.2810 hn         1 JK7       0.316500
     28 H071         2.9660     0.2400     1.7550 hc         1 JK7       0.078700
     29 H082         2.3210     1.5430    -1.1550 hc         1 JK7       0.057200
     30 H081         2.0870     2.3620     0.4090 hc         1 JK7       0.057200
     31 H092         4.6060     2.2620     0.8970 hc         1 JK7       0.051700
     32 H091         4.6960     2.3980    -0.8740 hc         1 JK7       0.051700
     33 H111        -0.4940    -0.8270    -2.3080 h1         1 JK7       0.127700
     34 H161        -2.7240     3.4630     1.3600 ha         1 JK7       0.114000
     35 H181        -0.0060     1.9920    -1.6910 ha         1 JK7       0.129000
     36 H151        -3.5780     1.1290     1.7350 ha         1 JK7       0.116000
@<TRIPOS>BOND
     1     1    11 1   
     2     1    13 1   
     3     1    20 1   
     4     1    21 1   
     5     2     6 1   
     6     2    15 1   
     7     2    16 1   
     8     2    22 1   
     9     3    16 ar  
    10     3    17 ar  
    11     3    36 1   
    12     4    17 ar  
    13     4    18 ar  
    14     4    23 1   
    15     5     6 1   
    16     5    24 1   
    17     6     7 1   
    18     6    25 1   
    19     7     8 1   
    20     7    14 1   
    21     7    26 1   
    22     8     9 1   
    23     8    27 1   
    24     9    10 2   
    25     9    11 1   
    26    11    12 1   
    27    11    28 1   
    28    12    13 1   
    29    12    29 1   
    30    12    30 1   
    31    13    31 1   
    32    13    32 1   
    33    14    15 1   
    34    14    19 1   
    35    14    33 1   
    36    16    19 ar  
    37    17    34 1   
    38    18    19 ar  
    39    18    35 1   
@<TRIPOS>SUBSTRUCTURE
     1 JK7         1 TEMP              0 ****  ****    0 ROOT
