@<TRIPOS>MOLECULE
JK9
   25    26     1     0     0
SMALL
No Charge or Current Charge


@<TRIPOS>ATOM
      1 C11         13.4980     5.9190    64.2650 ca         1 JK9       0.333900
      2 C01         22.1830     4.4450    65.9480 c3         1 JK9       0.147900
      3 C03         20.0000     4.9980    64.9370 ca         1 JK9       0.151100
      4 C04         19.3060     5.6250    63.8920 ca         1 JK9      -0.175500
      5 C05         17.9020     5.6000    63.8530 ca         1 JK9      -0.055000
      6 C06         17.1530     4.9430    64.8620 cp         1 JK9      -0.088000
      7 C07         15.6560     4.9150    64.8210 cp         1 JK9       0.020000
      8 C08         14.9130     3.8180    65.3170 ca         1 JK9      -0.161500
      9 C09         13.5100     3.8310    65.2580 ca         1 JK9       0.333900
     10 C12         14.9010     5.9850    64.2840 ca         1 JK9      -0.161500
     11 C13         17.8700     4.3140    65.9110 ca         1 JK9      -0.055000
     12 C14         19.2750     4.3390    65.9520 ca         1 JK9      -0.175500
     13 N10         12.8040     4.8620    64.7430 nb         1 JK9      -0.665000
     14 H1          12.9110     6.7410    63.8580 h4         1 JK9       0.017100
     15 H2          23.2480     4.6090    65.7440 h1         1 JK9       0.042700
     16 H3          21.9550     4.8750    66.9310 h1         1 JK9       0.042700
     17 H4          22.0080     3.3620    65.9880 h1         1 JK9       0.042700
     18 H5          19.8610     6.1310    63.1060 ha         1 JK9       0.124000
     19 H6          17.3920     6.0830    63.0230 ha         1 JK9       0.116000
     20 H7          15.4140     2.9490    65.7330 ha         1 JK9       0.122500
     21 H8          12.9320     2.9870    65.6340 h4         1 JK9       0.017100
     22 H9          15.3910     6.8720    63.8950 ha         1 JK9       0.122500
     23 H10         17.3320     3.8120    66.7120 ha         1 JK9       0.116000
     24 H11         19.7800     3.8460    66.7780 ha         1 JK9       0.124000
     25 O02         21.3790     5.0560    64.9230 os         1 JK9      -0.338100
@<TRIPOS>BOND
     1     1    10 ar  
     2     1    13 ar  
     3     1    14 1   
     4     2    15 1   
     5     2    16 1   
     6     2    17 1   
     7     2    25 1   
     8     3     4 ar  
     9     3    12 ar  
    10     3    25 1   
    11     4     5 ar  
    12     4    18 1   
    13     5     6 ar  
    14     5    19 1   
    15     6     7 1   
    16     6    11 ar  
    17     7     8 ar  
    18     7    10 ar  
    19     8     9 ar  
    20     8    20 1   
    21     9    13 ar  
    22     9    21 1   
    23    10    22 1   
    24    11    12 ar  
    25    11    23 1   
    26    12    24 1   
@<TRIPOS>SUBSTRUCTURE
     1 JK9         1 TEMP              0 ****  ****    0 ROOT
