@<TRIPOS>MOLECULE
JK9
   25    26     1     0     0
SMALL
abcg2


@<TRIPOS>ATOM
      1 C11         13.5740     5.9070    64.2990 ca         1 JK9       0.333900
      2 C01         22.0650     4.4610    65.9360 c3         1 JK9       0.147900
      3 C03         19.9770     4.9840    64.9430 ca         1 JK9       0.151100
      4 C04         19.2840     5.5970    63.8950 ca         1 JK9      -0.175500
      5 C05         17.9050     5.5720    63.8640 ca         1 JK9      -0.055000
      6 C06         17.1660     4.9340    64.8650 cp         1 JK9      -0.088000
      7 C07         15.6940     4.9100    64.8260 cp         1 JK9       0.020000
      8 C08         14.9640     3.8200    65.3000 ca         1 JK9      -0.161500
      9 C09         13.5800     3.8500    65.2430 ca         1 JK9       0.333900
     10 C12         14.9570     5.9780    64.3140 ca         1 JK9      -0.161500
     11 C13         17.8700     4.3230    65.9000 ca         1 JK9      -0.055000
     12 C14         19.2570     4.3450    65.9500 ca         1 JK9      -0.175500
     13 N10         12.8820     4.8680    64.7530 nb         1 JK9      -0.665000
     14 H1          12.9990     6.7380    63.9060 h4         1 JK9       0.017100
     15 H2          23.1120     4.6450    65.7090 h1         1 JK9       0.042700
     16 H3          21.8350     4.8990    66.9110 h1         1 JK9       0.042700
     17 H4          21.9010     3.3810    65.9870 h1         1 JK9       0.042700
     18 H5          19.8380     6.0860    63.1040 ha         1 JK9       0.124000
     19 H6          17.3960     6.0420    63.0310 ha         1 JK9       0.116000
     20 H7          15.4590     2.9420    65.6940 ha         1 JK9       0.122500
     21 H8          13.0100     3.0020    65.6070 h4         1 JK9       0.017100
     22 H9          15.4450     6.8710    63.9450 ha         1 JK9       0.122500
     23 H10         17.3350     3.8350    66.7050 ha         1 JK9       0.116000
     24 H11         19.7540     3.8660    66.7830 ha         1 JK9       0.124000
     25 O02         21.3170     5.0610    64.8970 os         1 JK9      -0.338100
@<TRIPOS>BOND
     1     1    10 ar  
     2     1    13 ar  
     3     1    14 1   
     4     2    15 1   
     5     2    16 1   
     6     2    17 1   
     7     2    25 1   
     8     3     4 ar  
     9     3    12 ar  
    10     3    25 1   
    11     4     5 ar  
    12     4    18 1   
    13     5     6 ar  
    14     5    19 1   
    15     6     7 1   
    16     6    11 ar  
    17     7     8 ar  
    18     7    10 ar  
    19     8     9 ar  
    20     8    20 1   
    21     9    13 ar  
    22     9    21 1   
    23    10    22 1   
    24    11    12 ar  
    25    11    23 1   
    26    12    24 1   
@<TRIPOS>SUBSTRUCTURE
     1 JK9         1 TEMP              0 ****  ****    0 ROOT
