@<TRIPOS>MOLECULE
JKA
   32    33     1     0     0
SMALL
No Charge or Current Charge


@<TRIPOS>ATOM
      1 C10         -1.2140    -0.8830    -1.7870 c6         1 JKA      -0.092400
      2 C13         -1.6250    -1.2680     1.1700 c6         1 JKA      -0.112400
      3 C01          3.2790     1.2200    -0.5360 c3         1 JKA      -0.365100
      4 S02          2.3790    -0.2230     0.0050 s6         1 JKA       1.234100
      5 O03          2.9570    -1.3720    -0.7000 o          1 JKA      -0.539500
      6 O04          2.2610    -0.2320     1.4650 o          1 JKA      -0.539500
      7 N05          0.8020     0.0080    -0.6420 n3         1 JKA      -0.802500
      8 C06          0.0300     1.1500    -0.0590 c6         1 JKA       0.200800
      9 C07         -1.3470     1.3970    -0.7590 c6         1 JKA       0.178300
     10 O08         -2.1220     2.3940    -0.0710 oh         1 JKA      -0.627000
     11 C09         -2.1550     0.0750    -1.0140 c6         1 JKA      -0.040700
     12 C11          0.0030    -1.2280    -0.8950 c6         1 JKA       0.252500
     13 C12         -0.4860    -1.9840     0.3850 c6         1 JKA      -0.082400
     14 C14         -2.7230    -0.7070     0.2270 c6         1 JKA       0.187300
     15 O15         -3.6740     0.0570     0.9730 oh         1 JKA      -0.636000
     16 H101        -1.7480    -1.8000    -2.0740 hc         1 JKA       0.052200
     17 H102        -0.8730    -0.4190    -2.7230 hc         1 JKA       0.052200
     18 H131        -2.0800    -1.9910     1.8610 hc         1 JKA       0.050200
     19 H132        -1.2230    -0.4840     1.8190 hc         1 JKA       0.050200
     20 H011         3.1770     1.2790    -1.6240 h1         1 JKA       0.099033
     21 H012         2.8450     2.0940    -0.0430 h1         1 JKA       0.099033
     22 H013         4.3240     1.0810    -0.2410 h1         1 JKA       0.099033
     23 H062        -0.1130     1.0250     1.0210 h1         1 JKA       0.059200
     24 H061         0.6120     2.0760    -0.1640 h1         1 JKA       0.059200
     25 H071        -1.1070     1.7930    -1.7560 h1         1 JKA       0.019700
     26 H081        -1.6940     3.2600    -0.2440 ho         1 JKA       0.438000
     27 H091        -3.0030     0.3240    -1.6660 hc         1 JKA       0.071700
     28 H111         0.6180    -1.9370    -1.4710 h1         1 JKA       0.069700
     29 H122         0.3550    -2.1970     1.0580 hc         1 JKA       0.055700
     30 H121        -0.8570    -2.9680     0.0700 hc         1 JKA       0.055700
     31 H141        -3.2480    -1.5820    -0.1840 h1         1 JKA       0.017700
     32 H151        -4.0100    -0.5290     1.6840 ho         1 JKA       0.438000
@<TRIPOS>BOND
     1     1    11 1   
     2     1    12 1   
     3     1    16 1   
     4     1    17 1   
     5     2    13 1   
     6     2    14 1   
     7     2    18 1   
     8     2    19 1   
     9     3     4 1   
    10     3    20 1   
    11     3    21 1   
    12     3    22 1   
    13     4     5 2   
    14     4     6 2   
    15     4     7 1   
    16     7     8 1   
    17     7    12 1   
    18     8     9 1   
    19     8    23 1   
    20     8    24 1   
    21     9    10 1   
    22     9    11 1   
    23     9    25 1   
    24    10    26 1   
    25    11    14 1   
    26    11    27 1   
    27    12    13 1   
    28    12    28 1   
    29    13    29 1   
    30    13    30 1   
    31    14    15 1   
    32    14    31 1   
    33    15    32 1   
@<TRIPOS>SUBSTRUCTURE
     1 JKA         1 TEMP              0 ****  ****    0 ROOT
