@<TRIPOS>MOLECULE
JKA
   32    33     1     0     0
SMALL
abcg2


@<TRIPOS>ATOM
      1 C10         -0.8940    -0.6690    -1.6840 c6         1 JKA      -0.092400
      2 C13         -1.7440    -1.4370     1.0220 c6         1 JKA      -0.112400
      3 C01          3.0330     0.8880    -1.2140 c3         1 JKA      -0.365100
      4 S02          2.3580     0.0980     0.2310 s6         1 JKA       1.234100
      5 O03          2.8640    -1.2690     0.2600 o          1 JKA      -0.539500
      6 O04          2.6160     0.9630     1.3750 o          1 JKA      -0.539500
      7 N05          0.7430     0.0490    -0.0250 n3         1 JKA      -0.802500
      8 C06         -0.0930     1.1480     0.4540 c6         1 JKA       0.200800
      9 C07         -1.2800     1.4170    -0.4810 c6         1 JKA       0.178300
     10 O08         -2.1860     2.2880     0.1480 oh         1 JKA      -0.627000
     11 C09         -1.9740     0.1520    -0.9810 c6         1 JKA      -0.040700
     12 C11          0.1360    -1.1280    -0.6610 c6         1 JKA       0.252500
     13 C12         -0.5230    -2.0630     0.3500 c6         1 JKA      -0.082400
     14 C14         -2.6830    -0.7630     0.0220 c6         1 JKA       0.187300
     15 O15         -3.7190    -0.0580     0.6680 oh         1 JKA      -0.636000
     16 H101        -1.3280    -1.5480    -2.1660 hc         1 JKA       0.052200
     17 H102        -0.4150    -0.0810    -2.4710 hc         1 JKA       0.052200
     18 H131        -2.2990    -2.2190     1.5510 hc         1 JKA       0.050200
     19 H132        -1.4400    -0.7240     1.7890 hc         1 JKA       0.050200
     20 H011         2.7830     0.2940    -2.0900 h1         1 JKA       0.099033
     21 H012         2.6120     1.8870    -1.3090 h1         1 JKA       0.099033
     22 H013         4.1140     0.9510    -1.1040 h1         1 JKA       0.099033
     23 H062        -0.4560     0.9590     1.4660 h1         1 JKA       0.059200
     24 H061         0.5020     2.0610     0.5030 h1         1 JKA       0.059200
     25 H071        -0.8720     1.8880    -1.3870 h1         1 JKA       0.019700
     26 H081        -1.7690     3.1540     0.2080 ho         1 JKA       0.438000
     27 H091        -2.7180     0.4650    -1.7210 hc         1 JKA       0.071700
     28 H111         0.9240    -1.6720    -1.1810 h1         1 JKA       0.069700
     29 H122         0.2040    -2.3780     1.1010 hc         1 JKA       0.055700
     30 H121        -0.8260    -2.9660    -0.1890 hc         1 JKA       0.055700
     31 H141        -3.1130    -1.5680    -0.5970 h1         1 JKA       0.017700
     32 H151        -4.2160    -0.6900     1.1980 ho         1 JKA       0.438000
@<TRIPOS>BOND
     1     1    11 1   
     2     1    12 1   
     3     1    16 1   
     4     1    17 1   
     5     2    13 1   
     6     2    14 1   
     7     2    18 1   
     8     2    19 1   
     9     3     4 1   
    10     3    20 1   
    11     3    21 1   
    12     3    22 1   
    13     4     5 2   
    14     4     6 2   
    15     4     7 1   
    16     7     8 1   
    17     7    12 1   
    18     8     9 1   
    19     8    23 1   
    20     8    24 1   
    21     9    10 1   
    22     9    11 1   
    23     9    25 1   
    24    10    26 1   
    25    11    14 1   
    26    11    27 1   
    27    12    13 1   
    28    12    28 1   
    29    13    29 1   
    30    13    30 1   
    31    14    15 1   
    32    14    31 1   
    33    15    32 1   
@<TRIPOS>SUBSTRUCTURE
     1 JKA         1 TEMP              0 ****  ****    0 ROOT
