@<TRIPOS>MOLECULE
JKB
   45    47     1     0     0
SMALL
No Charge or Current Charge


@<TRIPOS>ATOM
      1 C01          5.4050    -1.4830    -0.1280 ca         1 JKB      -0.072500
      2 C02          6.7000    -1.2840     0.3830 ca         1 JKB      -0.155000
      3 C03          4.7810    -0.4760    -0.8920 ca         1 JKB      -0.107300
      4 C04          7.3730    -0.0790     0.1310 ca         1 JKB       0.173000
      5 C05          5.4640     0.7320    -1.1400 ca         1 JKB      -0.072500
      6 C06          6.7600     0.9290    -0.6280 ca         1 JKB      -0.155000
      7 C07          3.3740    -0.6960    -1.4410 c3         1 JKB       0.221100
      8 N08          2.3440    -0.7920    -0.3810 n3         1 JKB      -0.728600
      9 C09          1.1900     0.2850     1.5850 c6         1 JKB       0.100000
     10 C10          2.2350     0.4470     0.4490 c6         1 JKB       0.144800
     11 N11         -0.1410    -0.1280     1.0610 n          1 JKB      -0.388800
     12 C12         -0.0520    -1.3470     0.2040 c6         1 JKB       0.100000
     13 C13          1.0080    -1.1830    -0.9200 c6         1 JKB       0.144800
     14 C14         -1.2120     0.7900     0.9580 c          1 JKB       0.626700
     15 C15         -2.5890     0.2460     0.6170 ca         1 JKB      -0.041600
     16 C16         -4.7780     0.4420    -0.4810 ca         1 JKB       0.006000
     17 C17         -3.4750     0.9390    -0.2530 ca         1 JKB      -0.163200
     18 C18         -5.2150    -0.7480     0.1430 ca         1 JKB      -0.184200
     19 C19         -4.3320    -1.4370     1.0030 ca         1 JKB      -0.012000
     20 C20         -3.0400    -0.9400     1.2380 ca         1 JKB      -0.111000
     21 O22         -1.0580     1.9700     1.2510 o          1 JKB      -0.569100
     22 N23         -6.5950    -1.2740    -0.1060 no         1 JKB       0.697200
     23 O24         -7.3350    -0.6360    -0.8660 o          1 JKB      -0.381500
     24 O25         -6.9330    -2.3220     0.4580 o          1 JKB      -0.381500
     25 N26         -3.0420     2.1660    -0.9810 no         1 JKB       0.699200
     26 O28         -1.9800     2.1080    -1.6140 o          1 JKB      -0.379500
     27 F21          8.6160     0.1120     0.6220 f          1 JKB      -0.179000
     28 H1           4.8810    -2.4150     0.0720 ha         1 JKB       0.122000
     29 H2           7.1800    -2.0600     0.9730 ha         1 JKB       0.132500
     30 H3           4.9920     1.5180    -1.7270 ha         1 JKB       0.122000
     31 H4           7.2870     1.8610    -0.8180 ha         1 JKB       0.132500
     32 H5           3.1240     0.1180    -2.1360 h1         1 JKB       0.042700
     33 H6           3.3860    -1.6230    -2.0310 h1         1 JKB       0.042700
     34 H8           1.5450    -0.4840     2.2860 h1         1 JKB       0.062200
     35 H9           1.1170     1.2230     2.1520 h1         1 JKB       0.062200
     36 H10          3.2040     0.6970     0.9050 h1         1 JKB       0.050950
     37 H11          1.9430     1.3020    -0.1790 h1         1 JKB       0.050950
     38 H12          0.2220    -2.2040     0.8350 h1         1 JKB       0.062200
     39 H13         -1.0160    -1.5810    -0.2640 h1         1 JKB       0.062200
     40 H14          0.6490    -0.4230    -1.6310 h1         1 JKB       0.050950
     41 H15          1.0810    -2.1310    -1.4730 h1         1 JKB       0.050950
     42 H16         -5.4430     0.9800    -1.1580 ha         1 JKB       0.188000
     43 H17         -4.6410    -2.3530     1.5040 ha         1 JKB       0.164000
     44 H18         -2.3920    -1.4730     1.9310 ha         1 JKB       0.148000
     45 O27         -3.8690     3.0780    -1.1090 o          1 JKB      -0.379500
@<TRIPOS>BOND
     1     1     2 ar  
     2     1     3 ar  
     3     1    28 1   
     4     2     4 ar  
     5     2    29 1   
     6     3     5 ar  
     7     3     7 1   
     8     4     6 ar  
     9     4    27 1   
    10     5     6 ar  
    11     5    30 1   
    12     6    31 1   
    13     7     8 1   
    14     7    32 1   
    15     7    33 1   
    16     8    10 1   
    17     8    13 1   
    18     9    10 1   
    19     9    11 1   
    20     9    34 1   
    21     9    35 1   
    22    10    36 1   
    23    10    37 1   
    24    11    12 1   
    25    11    14 1   
    26    12    13 1   
    27    12    38 1   
    28    12    39 1   
    29    13    40 1   
    30    13    41 1   
    31    14    15 1   
    32    14    21 2   
    33    15    17 ar  
    34    15    20 ar  
    35    16    17 ar  
    36    16    18 ar  
    37    16    42 1   
    38    17    25 1   
    39    18    19 ar  
    40    18    22 1   
    41    19    20 ar  
    42    19    43 1   
    43    20    44 1   
    44    22    23 1   
    45    22    24 1   
    46    25    26 1   
    47    25    45 1   
@<TRIPOS>SUBSTRUCTURE
     1 JKB         1 TEMP              0 ****  ****    0 ROOT
