@<TRIPOS>MOLECULE
JKB
   45    47     1     0     0
SMALL
abcg2


@<TRIPOS>ATOM
      1 C01          5.0320    -1.2830    -0.0150 ca         1 JKB      -0.072500
      2 C02          6.3210    -1.3060     0.4950 ca         1 JKB      -0.155000
      3 C03          4.6390    -0.3160    -0.9370 ca         1 JKB      -0.107300
      4 C04          7.2190    -0.3440     0.0690 ca         1 JKB       0.173000
      5 C05          5.5680     0.6390    -1.3340 ca         1 JKB      -0.072500
      6 C06          6.8670     0.6330    -0.8400 ca         1 JKB      -0.155000
      7 C07          3.2450    -0.3270    -1.5080 c3         1 JKB       0.221100
      8 N08          2.2370    -0.5030    -0.4840 n3         1 JKB      -0.728600
      9 C09          1.1900     0.3260     1.5510 c6         1 JKB       0.100000
     10 C10          2.1390     0.6360     0.4070 c6         1 JKB       0.144800
     11 N11         -0.1090    -0.0720     1.0340 n          1 JKB      -0.388800
     12 C12         -0.0420    -1.1610     0.0770 c6         1 JKB       0.100000
     13 C13          0.9400    -0.8330    -1.0360 c6         1 JKB       0.144800
     14 C14         -1.2110     0.6280     1.3160 c          1 JKB       0.626700
     15 C15         -2.5180     0.0760     0.8000 ca         1 JKB      -0.041600
     16 C16         -4.5200     0.2110    -0.5690 ca         1 JKB       0.006000
     17 C17         -3.2540     0.6500    -0.2320 ca         1 JKB      -0.163200
     18 C18         -5.0540    -0.8380     0.1530 ca         1 JKB      -0.184200
     19 C19         -4.3620    -1.4350     1.1950 ca         1 JKB      -0.012000
     20 C20         -3.1000    -0.9670     1.5120 ca         1 JKB      -0.111000
     21 O22         -1.2660     1.6090     2.0390 o          1 JKB      -0.569100
     22 N23         -6.3830    -1.3270    -0.1990 no         1 JKB       0.697200
     23 O24         -6.9520    -0.7940    -1.1190 o          1 JKB      -0.381500
     24 O25         -6.8340    -2.2360     0.4510 o          1 JKB      -0.381500
     25 N26         -2.6790     1.7310    -1.0220 no         1 JKB       0.699200
     26 O28         -1.4820     1.8750    -0.9770 o          1 JKB      -0.379500
     27 F21          8.4710    -0.3600     0.5580 f          1 JKB      -0.179000
     28 H1           4.3170    -2.0240     0.3190 ha         1 JKB       0.122000
     29 H2           6.6230    -2.0610     1.2100 ha         1 JKB       0.132500
     30 H3           5.2800     1.4090    -2.0400 ha         1 JKB       0.122000
     31 H4           7.5850     1.3790    -1.1540 ha         1 JKB       0.132500
     32 H5           3.0870     0.5870    -2.1040 h1         1 JKB       0.042700
     33 H6           3.1550    -1.1640    -2.2070 h1         1 JKB       0.042700
     34 H8           1.5940    -0.4970     2.1470 h1         1 JKB       0.062200
     35 H9           1.0790     1.1900     2.2010 h1         1 JKB       0.062200
     36 H10          3.1230     0.8580     0.8260 h1         1 JKB       0.050950
     37 H11          1.7950     1.5420    -0.1180 h1         1 JKB       0.050950
     38 H12          0.2830    -2.0680     0.5940 h1         1 JKB       0.062200
     39 H13         -1.0210    -1.3620    -0.3510 h1         1 JKB       0.062200
     40 H14          0.5270    -0.0190    -1.6530 h1         1 JKB       0.050950
     41 H15          1.0340    -1.7110    -1.6790 h1         1 JKB       0.050950
     42 H16         -5.0690     0.6660    -1.3800 ha         1 JKB       0.188000
     43 H17         -4.7860    -2.2530     1.7590 ha         1 JKB       0.164000
     44 H18         -2.5570    -1.4250     2.3270 ha         1 JKB       0.148000
     45 O27         -3.4280     2.4100    -1.6790 o          1 JKB      -0.379500
@<TRIPOS>BOND
     1     1     2 ar  
     2     1     3 ar  
     3     1    28 1   
     4     2     4 ar  
     5     2    29 1   
     6     3     5 ar  
     7     3     7 1   
     8     4     6 ar  
     9     4    27 1   
    10     5     6 ar  
    11     5    30 1   
    12     6    31 1   
    13     7     8 1   
    14     7    32 1   
    15     7    33 1   
    16     8    10 1   
    17     8    13 1   
    18     9    10 1   
    19     9    11 1   
    20     9    34 1   
    21     9    35 1   
    22    10    36 1   
    23    10    37 1   
    24    11    12 1   
    25    11    14 1   
    26    12    13 1   
    27    12    38 1   
    28    12    39 1   
    29    13    40 1   
    30    13    41 1   
    31    14    15 1   
    32    14    21 2   
    33    15    17 ar  
    34    15    20 ar  
    35    16    17 ar  
    36    16    18 ar  
    37    16    42 1   
    38    17    25 1   
    39    18    19 ar  
    40    18    22 1   
    41    19    20 ar  
    42    19    43 1   
    43    20    44 1   
    44    22    23 1   
    45    22    24 1   
    46    25    26 1   
    47    25    45 1   
@<TRIPOS>SUBSTRUCTURE
     1 JKB         1 TEMP              0 ****  ****    0 ROOT
