@<TRIPOS>MOLECULE
JKC
   36    36     1     0     0
SMALL
abcg2


@<TRIPOS>ATOM
      1 C7           9.6650     5.8190    -0.8630 ca         1 JKC      -0.087500
      2 C6          10.2160     6.7710    -0.0150 ca         1 JKC      -0.118000
      3 C5          11.3490     6.4680     0.7280 ca         1 JKC      -0.113000
      4 C4          11.9290     5.2110     0.6110 ca         1 JKC      -0.118000
      5 C3          11.3840     4.2650    -0.2470 ca         1 JKC      -0.087500
      6 C2          10.2430     4.5610    -0.9900 ca         1 JKC      -0.102300
      7 C1           9.6680     3.5630    -1.9560 c3         1 JKC       0.230900
      8 O2           9.6320     2.2390    -1.4410 os         1 JKC      -0.464100
      9 CZ           8.7260     1.9870    -0.4780 c          1 JKC       0.638100
     10 O1           7.9460     2.8170    -0.0620 o          1 JKC      -0.546000
     11 NE           8.8250     0.7160    -0.0610 ns         1 JKC      -0.490900
     12 CD           7.9490     0.1220     0.9280 c3         1 JKC       0.114000
     13 CG           6.8240    -0.7160     0.3330 c3         1 JKC      -0.092400
     14 CB           5.8490     0.0800    -0.5240 c3         1 JKC      -0.032400
     15 CA           4.6010    -0.7000    -0.9410 c3         1 JKC       0.021500
     16 C            4.9340    -1.9640    -1.7720 c          1 JKC       0.718000
     17 O            5.8120    -1.8340    -2.6480 o          1 JKC      -0.734000
     18 OXT          4.2710    -2.9940    -1.5340 o          1 JKC      -0.734000
     19 N            3.8030    -1.0300     0.2320 n8         1 JKC      -1.004200
     20 H1           8.7730     6.0590    -1.4290 ha         1 JKC       0.117000
     21 H2           9.7540     7.7460     0.0720 ha         1 JKC       0.105500
     22 H3          11.7770     7.2050     1.3950 ha         1 JKC       0.103000
     23 H4          12.8130     4.9670     1.1860 ha         1 JKC       0.105500
     24 H5          11.8520     3.2920    -0.3320 ha         1 JKC       0.117000
     25 H6           8.6780     3.8810    -2.2900 h1         1 JKC       0.062700
     26 H7          10.3030     3.4910    -2.8410 h1         1 JKC       0.062700
     27 H8           9.4910     0.1130    -0.5190 hn         1 JKC       0.321500
     28 H9           8.5620    -0.4980     1.5840 h1         1 JKC       0.039700
     29 H10          7.5380     0.9210     1.5450 h1         1 JKC       0.039700
     30 H11          6.2840    -1.1820     1.1610 hc         1 JKC       0.062700
     31 H12          7.2550    -1.5310    -0.2560 hc         1 JKC       0.062700
     32 H13          6.3520     0.4410    -1.4230 hc         1 JKC       0.024200
     33 H14          5.5320     0.9730     0.0260 hc         1 JKC       0.024200
     34 H15          4.0460    -0.0440    -1.6350 h1         1 JKC      -0.002300
     35 H17          3.2880    -0.2130     0.5340 hn         1 JKC       0.379500
     36 H18          3.1220    -1.7310    -0.0250 hn         1 JKC       0.379500
@<TRIPOS>BOND
     1     1     2 ar  
     2     1     6 ar  
     3     1    20 1   
     4     2     3 ar  
     5     2    21 1   
     6     3     4 ar  
     7     3    22 1   
     8     4     5 ar  
     9     4    23 1   
    10     5     6 ar  
    11     5    24 1   
    12     6     7 1   
    13     7     8 1   
    14     7    25 1   
    15     7    26 1   
    16     8     9 1   
    17     9    10 2   
    18     9    11 1   
    19    11    12 1   
    20    11    27 1   
    21    12    13 1   
    22    12    28 1   
    23    12    29 1   
    24    13    14 1   
    25    13    30 1   
    26    13    31 1   
    27    14    15 1   
    28    14    32 1   
    29    14    33 1   
    30    15    16 1   
    31    15    19 1   
    32    15    34 1   
    33    16    17 1   
    34    16    18 1   
    35    19    35 1   
    36    19    36 1   
@<TRIPOS>SUBSTRUCTURE
     1 JKC         1 TEMP              0 ****  ****    0 ROOT
