@<TRIPOS>MOLECULE
JKC
   36    36     1     0     0
SMALL
No Charge or Current Charge


@<TRIPOS>ATOM
      1 C7           9.5870     5.6360    -0.6880 ca         1 JKC      -0.087500
      2 C6          10.1290     6.5880     0.1930 ca         1 JKC      -0.118000
      3 C5          11.4260     6.4160     0.7040 ca         1 JKC      -0.113000
      4 C4          12.1820     5.2910     0.3340 ca         1 JKC      -0.118000
      5 C3          11.6410     4.3390    -0.5480 ca         1 JKC      -0.087500
      6 C2          10.3390     4.5040    -1.0630 ca         1 JKC      -0.102300
      7 C1           9.7580     3.4690    -2.0240 c3         1 JKC       0.230900
      8 O2           9.6290     2.2040    -1.3480 os         1 JKC      -0.464100
      9 CZ           8.6330     2.0600    -0.4300 c          1 JKC       0.638100
     10 O1           7.7710     2.8830    -0.1660 o          1 JKC      -0.546000
     11 NE           8.7320     0.8150     0.1260 ns         1 JKC      -0.490900
     12 CD           7.8150     0.2650     1.1260 c3         1 JKC       0.114000
     13 CG           6.7250    -0.6400     0.5120 c3         1 JKC      -0.092400
     14 CB           5.7490     0.0940    -0.4450 c3         1 JKC      -0.032400
     15 CA           4.5960    -0.7830    -1.0090 c3         1 JKC       0.021500
     16 C            5.1580    -1.9250    -1.9660 c          1 JKC       0.718000
     17 O            5.2770    -1.6660    -3.1570 o          1 JKC      -0.734000
     18 OXT          5.3320    -3.0530    -1.5170 o          1 JKC      -0.734000
     19 N            3.6380    -1.1870     0.0870 n8         1 JKC      -1.004200
     20 H1           8.5800     5.7770    -1.0760 ha         1 JKC       0.117000
     21 H2           9.5430     7.4580     0.4800 ha         1 JKC       0.105500
     22 H3          11.8450     7.1530     1.3860 ha         1 JKC       0.103000
     23 H4          13.1860     5.1560     0.7280 ha         1 JKC       0.105500
     24 H5          12.2310     3.4690    -0.8300 ha         1 JKC       0.117000
     25 H6           8.7910     3.8070    -2.4210 h1         1 JKC       0.062700
     26 H7          10.4400     3.3670    -2.8780 h1         1 JKC       0.062700
     27 H8           9.4990     0.2440    -0.2040 hn         1 JKC       0.321500
     28 H9           8.4050    -0.3220     1.8410 h1         1 JKC       0.039700
     29 H10          7.3430     1.0870     1.6820 h1         1 JKC       0.039700
     30 H11          6.1540    -1.0880     1.3330 hc         1 JKC       0.062700
     31 H12          7.2110    -1.4660    -0.0200 hc         1 JKC       0.062700
     32 H13          6.3150     0.5000    -1.2930 hc         1 JKC       0.024200
     33 H14          5.3180     0.9570     0.0780 hc         1 JKC       0.024200
     34 H15          4.0040    -0.1240    -1.6590 h1         1 JKC      -0.002300
     35 H17          3.2310    -0.3450     0.5110 hn         1 JKC       0.379500
     36 H18          2.8330    -1.6690    -0.3290 hn         1 JKC       0.379500
@<TRIPOS>BOND
     1     1     2 ar  
     2     1     6 ar  
     3     1    20 1   
     4     2     3 ar  
     5     2    21 1   
     6     3     4 ar  
     7     3    22 1   
     8     4     5 ar  
     9     4    23 1   
    10     5     6 ar  
    11     5    24 1   
    12     6     7 1   
    13     7     8 1   
    14     7    25 1   
    15     7    26 1   
    16     8     9 1   
    17     9    10 2   
    18     9    11 1   
    19    11    12 1   
    20    11    27 1   
    21    12    13 1   
    22    12    28 1   
    23    12    29 1   
    24    13    14 1   
    25    13    30 1   
    26    13    31 1   
    27    14    15 1   
    28    14    32 1   
    29    14    33 1   
    30    15    16 1   
    31    15    19 1   
    32    15    34 1   
    33    16    17 1   
    34    16    18 1   
    35    19    35 1   
    36    19    36 1   
@<TRIPOS>SUBSTRUCTURE
     1 JKC         1 TEMP              0 ****  ****    0 ROOT
