@<TRIPOS>MOLECULE
JKD
   70    75     1     0     0
SMALL
abcg2


@<TRIPOS>ATOM
      1 C02        -53.1930    73.9290   -13.9910 cc         1 JKD       0.375300
      2 C04        -54.2540    75.0890   -12.2840 cd         1 JKD       0.581800
      3 C06        -53.1350    76.3020   -14.0400 cd         1 JKD      -0.024000
      4 N09        -54.1300    77.5270   -12.4410 nd         1 JKD      -0.586100
      5 C11        -54.2600    80.3630   -12.1200 c3         1 JKD      -0.090700
      6 C18        -51.0840    84.6200   -11.9440 c5         1 JKD       0.222800
      7 C19        -50.5020    86.0040   -11.6830 c5         1 JKD      -0.095400
      8 C20        -51.5520    86.6410   -10.7680 c5         1 JKD      -0.095400
      9 C21        -52.8790    86.1600   -11.3620 c5         1 JKD       0.222800
     10 C22        -52.8740    72.5690   -14.5270 c3         1 JKD      -0.142400
     11 C23        -55.0860    75.1530   -11.0470 c3         1 JKD      -0.122700
     12 C24        -56.5700    75.4140   -11.3820 c3         1 JKD      -0.088700
     13 C25        -57.4200    75.4390   -10.1590 cc         1 JKD       0.552300
     14 C27        -58.3750    74.8160    -8.3700 cd         1 JKD       0.661400
     15 N01        -53.9190    73.9530   -12.8300 nc         1 JKD      -0.715000
     16 C03        -52.7830    75.0760   -14.6250 cd         1 JKD      -0.156000
     17 N05        -53.8730    76.2580   -12.8720 na         1 JKD       0.052900
     18 N07        -52.9160    77.5750   -14.3590 nc         1 JKD      -0.408300
     19 C08        -53.5350    78.2720   -13.3650 cc         1 JKD       0.548300
     20 C12        -54.1840    81.8530   -12.1180 cc         1 JKD       0.560300
     21 N13        -53.0080    82.5340   -12.0140 nc         1 JKD      -0.774000
     22 C14        -53.3790    83.8180   -12.0590 cd         1 JKD       0.697400
     23 N15        -54.7250    83.8960   -12.1950 na         1 JKD      -0.118700
     24 N16        -55.2490    82.6210   -12.2230 nd         1 JKD      -0.545800
     25 N17        -52.5320    84.8750   -12.0070 nh         1 JKD      -0.794300
     26 N26        -57.5470    74.3740    -9.3180 nc         1 JKD      -0.759000
     27 N28        -58.7310    76.0930    -8.6400 na         1 JKD      -0.097700
     28 N29        -58.1040    76.5040    -9.7890 nd         1 JKD      -0.531800
     29 N30        -58.8440    74.0920    -7.3080 nh         1 JKD      -0.747300
     30 C31        -58.7360    74.6380    -5.9380 c5         1 JKD       0.194800
     31 C32        -59.1600    73.4680    -5.0360 c5         1 JKD      -0.083900
     32 C33        -59.1120    72.2100    -5.9370 c5         1 JKD      -0.083900
     33 C34        -58.4530    72.6800    -7.2320 c5         1 JKD       0.194800
     34 C35        -59.7010    76.9440    -7.9810 c3         1 JKD       0.079900
     35 C36        -55.5830    85.0390   -12.4430 c3         1 JKD       0.083900
     36 H1         -52.4960    80.1010   -13.3460 hc         1 JKD       0.075700
     37 H2         -53.9880    80.1260   -14.2540 hc         1 JKD       0.075700
     38 H3         -55.3080    80.0640   -12.1210 hc         1 JKD       0.070700
     39 H4         -53.8120    79.9780   -11.2010 hc         1 JKD       0.070700
     40 H6         -50.7360    84.1690   -12.8730 h1         1 JKD       0.053450
     41 H7         -49.5130    85.9530   -11.2290 hc         1 JKD       0.055700
     42 H8         -50.4230    86.5640   -12.6170 hc         1 JKD       0.055700
     43 H9         -51.4390    86.2590    -9.7520 hc         1 JKD       0.055700
     44 H10        -51.4930    87.7290   -10.7320 hc         1 JKD       0.055700
     45 H11        -53.2570    86.8700   -12.1000 h1         1 JKD       0.053450
     46 H12        -53.6450    86.0150   -10.6000 h1         1 JKD       0.053450
     47 H13        -53.7970    72.0210   -14.7320 hc         1 JKD       0.056700
     48 H14        -52.2880    72.6300   -15.4430 hc         1 JKD       0.056700
     49 H15        -52.3150    71.9950   -13.7850 hc         1 JKD       0.056700
     50 H16        -54.9900    74.2000   -10.5310 hc         1 JKD       0.086200
     51 H17        -54.7160    75.9450   -10.3950 hc         1 JKD       0.086200
     52 H18        -56.6750    76.3650   -11.9030 hc         1 JKD       0.071200
     53 H19        -56.9220    74.6240   -12.0510 hc         1 JKD       0.071200
     54 H20        -52.2100    75.0530   -15.5400 ha         1 JKD       0.151000
     55 H21        -57.6990    74.9340    -5.7390 h1         1 JKD       0.052450
     56 H22        -59.3680    75.5130    -5.8100 h1         1 JKD       0.052450
     57 H23        -58.4860    73.3840    -4.1850 hc         1 JKD       0.052200
     58 H24        -60.1640    73.6250    -4.6450 hc         1 JKD       0.052200
     59 H25        -58.5530    71.3920    -5.4830 hc         1 JKD       0.052200
     60 H26        -60.1210    71.8510    -6.1400 hc         1 JKD       0.052200
     61 H27        -58.7950    72.1450    -8.1170 h1         1 JKD       0.052450
     62 H28        -57.3610    72.5840    -7.1770 h1         1 JKD       0.052450
     63 H29        -60.0650    77.6620    -8.7110 h1         1 JKD       0.056700
     64 H30        -60.5330    76.3360    -7.6290 h1         1 JKD       0.056700
     65 H31        -59.2590    77.4760    -7.1380 h1         1 JKD       0.056700
     66 H32        -56.4660    84.6800   -12.9650 h1         1 JKD       0.053033
     67 H33        -55.8860    85.5270   -11.5160 h1         1 JKD       0.053033
     68 H34        -55.0640    85.7550   -13.0760 h1         1 JKD       0.053033
     69 C10        -53.5350    79.7620   -13.3280 c3         1 JKD      -0.082700
     70 H5         -50.8490    83.9330   -11.1240 h1         1 JKD       0.053450
@<TRIPOS>BOND
     1     1    10 1   
     2     1    15 1   
     3     1    16 2   
     4     2    11 1   
     5     2    15 2   
     6     2    17 1   
     7     3    16 1   
     8     3    17 1   
     9     3    18 2   
    10     4    17 1   
    11     4    19 2   
    12     5    20 1   
    13     5    38 1   
    14     5    39 1   
    15     5    69 1   
    16     6     7 1   
    17     6    25 1   
    18     6    40 1   
    19     6    70 1   
    20     7     8 1   
    21     7    41 1   
    22     7    42 1   
    23     8     9 1   
    24     8    43 1   
    25     8    44 1   
    26     9    25 1   
    27     9    45 1   
    28     9    46 1   
    29    10    47 1   
    30    10    48 1   
    31    10    49 1   
    32    11    12 1   
    33    11    50 1   
    34    11    51 1   
    35    12    13 1   
    36    12    52 1   
    37    12    53 1   
    38    13    26 1   
    39    13    28 2   
    40    14    26 2   
    41    14    27 1   
    42    14    29 1   
    43    16    54 1   
    44    18    19 1   
    45    19    69 1   
    46    20    21 1   
    47    20    24 2   
    48    21    22 2   
    49    22    23 1   
    50    22    25 1   
    51    23    24 1   
    52    23    35 1   
    53    27    28 1   
    54    27    34 1   
    55    29    30 1   
    56    29    33 1   
    57    30    31 1   
    58    30    55 1   
    59    30    56 1   
    60    31    32 1   
    61    31    57 1   
    62    31    58 1   
    63    32    33 1   
    64    32    59 1   
    65    32    60 1   
    66    33    61 1   
    67    33    62 1   
    68    34    63 1   
    69    34    64 1   
    70    34    65 1   
    71    35    66 1   
    72    35    67 1   
    73    35    68 1   
    74    36    69 1   
    75    37    69 1   
@<TRIPOS>SUBSTRUCTURE
     1 JKD         1 TEMP              0 ****  ****    0 ROOT
