@<TRIPOS>MOLECULE
JKD
   70    75     1     0     0
SMALL
No Charge or Current Charge


@<TRIPOS>ATOM
      1 C02        -52.6420    74.3860   -12.9220 cc         1 JKD       0.375300
      2 C04        -54.1840    75.4010   -11.4340 cd         1 JKD       0.581800
      3 C06        -52.9050    76.7570   -12.9450 cd         1 JKD      -0.024000
      4 N09        -54.3410    77.8750   -11.5900 nd         1 JKD      -0.586100
      5 C11        -52.8350    80.8680   -11.4770 c3         1 JKD      -0.090700
      6 C18        -51.4140    85.2600   -14.1080 c5         1 JKD       0.222800
      7 C19        -51.2690    86.7350   -14.5560 c5         1 JKD      -0.095400
      8 C20        -51.0840    87.4430   -13.1900 c5         1 JKD      -0.095400
      9 C21        -52.2200    86.8000   -12.3540 c5         1 JKD       0.222800
     10 C22        -52.0530    73.0830   -13.3760 c3         1 JKD      -0.142400
     11 C23        -55.2220    75.2540   -10.3490 c3         1 JKD      -0.122700
     12 C24        -56.6730    75.2180   -10.8950 c3         1 JKD      -0.088700
     13 C25        -57.7100    75.0720    -9.8150 cc         1 JKD       0.552300
     14 C27        -58.9320    74.1090    -8.4480 cd         1 JKD       0.661400
     15 N01        -53.5970    74.2830   -11.9120 nc         1 JKD      -0.715000
     16 C03        -52.2690    75.6050   -13.4640 cd         1 JKD      -0.156000
     17 N05        -53.8300    76.6600   -11.9630 na         1 JKD       0.052900
     18 N07        -52.7540    78.0190   -13.2670 nc         1 JKD      -0.408300
     19 C08        -53.6420    78.6440   -12.4210 cc         1 JKD       0.548300
     20 C12        -52.9860    82.3630   -11.5090 cc         1 JKD       0.560300
     21 N13        -52.2960    83.0890   -12.4320 nc         1 JKD      -0.774000
     22 C14        -52.6710    84.3070   -12.1490 cd         1 JKD       0.697400
     23 N15        -53.5830    84.3090   -11.0960 na         1 JKD      -0.118700
     24 N16        -53.7790    83.0180   -10.6760 nd         1 JKD      -0.545800
     25 N17        -52.2230    85.4100   -12.8740 nh         1 JKD      -0.794300
     26 N26        -58.0450    73.8320    -9.3660 nc         1 JKD      -0.759000
     27 N28        -59.1400    75.4840    -8.3660 na         1 JKD      -0.097700
     28 N29        -58.3220    76.1120    -9.2700 nd         1 JKD      -0.531800
     29 N30        -59.5810    73.1160    -7.7120 nh         1 JKD      -0.747300
     30 C31        -60.2220    73.3410    -6.3930 c5         1 JKD       0.194800
     31 C32        -60.1650    71.9210    -5.7710 c5         1 JKD      -0.083900
     32 C33        -60.4010    71.0310    -7.0170 c5         1 JKD      -0.083900
     33 C34        -59.4240    71.6750    -8.0310 c5         1 JKD       0.194800
     34 C35        -60.0950    76.2420    -7.5390 c3         1 JKD       0.079900
     35 C36        -54.3280    85.4320   -10.5010 c3         1 JKD       0.083900
     36 H1         -53.6010    80.4990   -13.4760 hc         1 JKD       0.075700
     37 H2         -54.8230    80.4070   -12.2190 hc         1 JKD       0.075700
     38 H3         -53.0210    80.5060   -10.4580 hc         1 JKD       0.070700
     39 H4         -51.7980    80.6010   -11.7140 hc         1 JKD       0.070700
     40 H6         -51.9150    84.6470   -14.8710 h1         1 JKD       0.053450
     41 H7         -50.4210    86.8840   -15.2340 hc         1 JKD       0.055700
     42 H8         -52.1710    87.0850   -15.0720 hc         1 JKD       0.055700
     43 H9         -50.1000    87.2240   -12.7570 hc         1 JKD       0.055700
     44 H10        -51.1800    88.5320   -13.2570 hc         1 JKD       0.055700
     45 H11        -53.1830    87.2950   -12.5440 h1         1 JKD       0.053450
     46 H12        -52.0020    86.8550   -11.2790 h1         1 JKD       0.053450
     47 H13        -52.8320    72.4250   -13.7780 hc         1 JKD       0.056700
     48 H14        -51.3030    73.2340   -14.1600 hc         1 JKD       0.056700
     49 H15        -51.5670    72.5650   -12.5410 hc         1 JKD       0.056700
     50 H16        -55.0310    74.3360    -9.7800 hc         1 JKD       0.086200
     51 H17        -55.1250    76.0780    -9.6320 hc         1 JKD       0.086200
     52 H18        -56.8690    76.1350   -11.4620 hc         1 JKD       0.071200
     53 H19        -56.7710    74.3900   -11.6070 hc         1 JKD       0.071200
     54 H20        -51.5260    75.6710   -14.2510 ha         1 JKD       0.151000
     55 H21        -59.6800    74.0680    -5.7730 h1         1 JKD       0.052450
     56 H22        -61.2600    73.6820    -6.5110 h1         1 JKD       0.052450
     57 H23        -59.1850    71.7250    -5.3200 hc         1 JKD       0.052200
     58 H24        -60.9220    71.7760    -4.9920 hc         1 JKD       0.052200
     59 H25        -60.1770    69.9740    -6.8350 hc         1 JKD       0.052200
     60 H26        -61.4380    71.0960    -7.3660 hc         1 JKD       0.052200
     61 H27        -59.6960    71.4400    -9.0690 h1         1 JKD       0.052450
     62 H28        -58.3900    71.3440    -7.8590 h1         1 JKD       0.052450
     63 H29        -60.1620    77.2760    -7.8990 h1         1 JKD       0.056700
     64 H30        -61.0880    75.7800    -7.6040 h1         1 JKD       0.056700
     65 H31        -59.7580    76.2490    -6.4960 h1         1 JKD       0.056700
     66 H32        -55.1330    85.0510    -9.8620 h1         1 JKD       0.053033
     67 H33        -53.6510    86.0450    -9.8930 h1         1 JKD       0.053033
     68 H34        -54.7690    86.0470   -11.2950 h1         1 JKD       0.053033
     69 C10        -53.7870    80.1390   -12.4560 c3         1 JKD      -0.082700
     70 H5         -50.4360    84.8090   -13.8880 h1         1 JKD       0.053450
@<TRIPOS>BOND
     1     1    10 1   
     2     1    15 1   
     3     1    16 2   
     4     2    11 1   
     5     2    15 2   
     6     2    17 1   
     7     3    16 1   
     8     3    17 1   
     9     3    18 2   
    10     4    17 1   
    11     4    19 2   
    12     5    20 1   
    13     5    38 1   
    14     5    39 1   
    15     5    69 1   
    16     6     7 1   
    17     6    25 1   
    18     6    40 1   
    19     6    70 1   
    20     7     8 1   
    21     7    41 1   
    22     7    42 1   
    23     8     9 1   
    24     8    43 1   
    25     8    44 1   
    26     9    25 1   
    27     9    45 1   
    28     9    46 1   
    29    10    47 1   
    30    10    48 1   
    31    10    49 1   
    32    11    12 1   
    33    11    50 1   
    34    11    51 1   
    35    12    13 1   
    36    12    52 1   
    37    12    53 1   
    38    13    26 1   
    39    13    28 2   
    40    14    26 2   
    41    14    27 1   
    42    14    29 1   
    43    16    54 1   
    44    18    19 1   
    45    19    69 1   
    46    20    21 1   
    47    20    24 2   
    48    21    22 2   
    49    22    23 1   
    50    22    25 1   
    51    23    24 1   
    52    23    35 1   
    53    27    28 1   
    54    27    34 1   
    55    29    30 1   
    56    29    33 1   
    57    30    31 1   
    58    30    55 1   
    59    30    56 1   
    60    31    32 1   
    61    31    57 1   
    62    31    58 1   
    63    32    33 1   
    64    32    59 1   
    65    32    60 1   
    66    33    61 1   
    67    33    62 1   
    68    34    63 1   
    69    34    64 1   
    70    34    65 1   
    71    35    66 1   
    72    35    67 1   
    73    35    68 1   
    74    36    69 1   
    75    37    69 1   
@<TRIPOS>SUBSTRUCTURE
     1 JKD         1 TEMP              0 ****  ****    0 ROOT
