@<TRIPOS>MOLECULE
JKE
   15    15     1     0     0
SMALL
No Charge or Current Charge


@<TRIPOS>ATOM
      1 SD           0.3180     2.3560    -0.3470 s          1 JKE      -0.917400
      2 CZ          -0.0020    -0.4040    -0.1130 cc         1 JKE      -0.255200
      3 CD1         -1.9880     0.9830    -0.1010 cc         1 JKE      -0.248200
      4 OD1          2.1820     0.3550    -0.3050 oh         1 JKE      -0.676100
      5 CD2         -2.2190    -1.4290     0.1010 cd         1 JKE      -0.274000
      6 OD2          1.8540    -1.7830    -0.1190 o          1 JKE      -0.674300
      7 CE1         -0.5570     0.9290    -0.1830 cs         1 JKE       0.363800
      8 CE2         -0.8490    -1.5710     0.0290 cc         1 JKE      -0.110000
      9 CG1         -2.8060    -0.1210     0.0350 cd         1 JKE      -0.157000
     10 HSD          1.5540     1.1340    -0.3270 ho         1 JKE       0.546000
     11 HD1         -2.4240     1.9760    -0.1520 ha         1 JKE       0.181000
     12 HD2         -2.8520    -2.3070     0.2080 ha         1 JKE       0.156000
     13 HE2         -0.4200    -2.5700     0.0810 ha         1 JKE       0.180000
     14 HG1         -3.8860    -0.0000     0.0910 ha         1 JKE       0.149000
     15 CG           1.3480    -0.6650    -0.1750 c2         1 JKE       0.736400
@<TRIPOS>BOND
     1     1     7 2   
     2     2     7 1   
     3     2     8 1   
     4     2    15 2   
     5     3     7 1   
     6     3     9 2   
     7     3    11 1   
     8     4    10 1   
     9     4    15 1   
    10     5     8 2   
    11     5     9 1   
    12     5    12 1   
    13     6    15 1   
    14     8    13 1   
    15     9    14 1   
@<TRIPOS>SUBSTRUCTURE
     1 JKE         1 TEMP              0 ****  ****    0 ROOT
