@<TRIPOS>MOLECULE
JKE
   15    15     1     0     0
SMALL
abcg2


@<TRIPOS>ATOM
      1 SD           0.2690     2.3850    -0.3490 s          1 JKE      -0.917400
      2 CZ          -0.0460    -0.3980    -0.1120 cc         1 JKE      -0.255200
      3 CD1         -2.0290     0.9730    -0.0990 cc         1 JKE      -0.248200
      4 OD1          2.2620     0.3070    -0.2990 oh         1 JKE      -0.676100
      5 CD2         -2.2470    -1.4130     0.1030 cd         1 JKE      -0.274000
      6 OD2          1.8470    -1.8290    -0.1280 o          1 JKE      -0.674300
      7 CE1         -0.6220     0.8970    -0.1780 cs         1 JKE       0.363800
      8 CE2         -0.8750    -1.5200     0.0280 cc         1 JKE      -0.110000
      9 CG1         -2.8230    -0.1440     0.0370 cd         1 JKE      -0.157000
     10 HSD          1.7710     1.1920    -0.3350 ho         1 JKE       0.546000
     11 HD1         -2.4890     1.9520    -0.1490 ha         1 JKE       0.181000
     12 HD2         -2.8630    -2.2960     0.2130 ha         1 JKE       0.156000
     13 HE2         -0.4190    -2.4990     0.0780 ha         1 JKE       0.180000
     14 HG1         -3.8990    -0.0310     0.0920 ha         1 JKE       0.149000
     15 CG           1.4170    -0.6930    -0.1800 c2         1 JKE       0.736400
@<TRIPOS>BOND
     1     1     7 2   
     2     2     7 1   
     3     2     8 1   
     4     2    15 2   
     5     3     7 1   
     6     3     9 2   
     7     3    11 1   
     8     4    10 1   
     9     4    15 1   
    10     5     8 2   
    11     5     9 1   
    12     5    12 1   
    13     6    15 1   
    14     8    13 1   
    15     9    14 1   
@<TRIPOS>SUBSTRUCTURE
     1 JKE         1 TEMP              0 ****  ****    0 ROOT
