@<TRIPOS>MOLECULE
JKF
   58    62     1     0     0
SMALL
No Charge or Current Charge


@<TRIPOS>ATOM
      1 CAA         -1.9830     0.2760    -3.1270 c3         1 JKF       0.145900
      2 CAB         -1.0700    -1.2640     2.2740 c3         1 JKF       0.053900
      3 CAC          1.9580     5.0050     0.1600 c3         1 JKF       0.068300
      4 OAD          4.6180     4.1670    -0.0710 o          1 JKF      -0.543000
      5 CAH          4.5020    -3.2470     0.2150 ca         1 JKF      -0.042000
      6 CAI          5.0770    -2.3630    -0.7100 ca         1 JKF      -0.168000
      7 CAJ          3.5010    -2.7820     1.0820 ca         1 JKF      -0.168000
      8 CAK         -4.6560     0.8050     1.1960 ca         1 JKF      -0.110500
      9 CAL         -5.4990    -0.6590    -0.5460 ca         1 JKF      -0.110500
     10 CAM         -3.3400     0.5650     0.7630 ca         1 JKF      -0.087000
     11 CAN         -4.1840    -0.9000    -0.9800 ca         1 JKF      -0.087000
     12 CAO         -0.9480     1.9020    -0.6280 ca         1 JKF      -0.053000
     13 CAP         -0.9860    -3.1110    -0.8500 cc         1 JKF       0.264900
     14 CAQ          0.0200     2.8970    -0.4360 ca         1 JKF      -0.174000
     15 CAR         -0.5990    -3.5220     1.2220 cd         1 JKF       0.389400
     16 CAS          4.1000     1.8760    -0.0340 cc         1 JKF      -0.266200
     17 CAT          0.7620     0.2140    -0.3800 ca         1 JKF      -0.022000
     18 NAU         -0.6090    -4.0900     0.0250 nc         1 JKF      -0.678000
     19 OAV         -1.6580    -0.8280    -2.2550 os         1 JKF      -0.448000
     20 CAW         -5.7340     0.1970     0.5380 ca         1 JKF       0.126000
     21 CAX          4.6480    -1.0280    -0.7770 ca         1 JKF       0.216000
     22 CAY          3.0710    -1.4480     1.0130 ca         1 JKF       0.216000
     23 CAZ         -3.0820    -0.2730    -0.3490 ca         1 JKF      -0.114300
     24 CBA         -0.5980     0.5380    -0.5740 ca         1 JKF      -0.156300
     25 CBB          3.1710     0.8630     0.0110 cd         1 JKF       0.081600
     26 CBC          3.6200    -0.5490     0.0680 ca         1 JKF      -0.160800
     27 CBD         -1.2150    -1.9180    -0.2140 cd         1 JKF      -0.210300
     28 CBE          3.7550     3.3000    -0.0640 c          1 JKF       0.565200
     29 CBF          1.7420     1.2070    -0.1450 ca         1 JKF      -0.124800
     30 CBG          1.3600     2.5670    -0.1390 ca         1 JKF       0.113600
     31 NBH         -0.9680    -2.1870     1.1320 na         1 JKF      -0.157500
     32 NBI          2.3720     3.5930    -0.0520 n          1 JKF      -0.279000
     33 CBJ         -1.6380    -0.5890    -0.8230 c3         1 JKF       0.380900
     34 HAA         -1.1770     1.0200    -3.1420 h1         1 JKF       0.035700
     35 HAAA        -2.1150    -0.0840    -4.1550 h1         1 JKF       0.035700
     36 HAAB        -2.9130     0.7710    -2.8220 h1         1 JKF       0.035700
     37 HAB         -2.1220    -1.1450     2.5580 h1         1 JKF       0.057033
     38 HABA        -0.5140    -1.6700     3.1280 h1         1 JKF       0.057033
     39 HABB        -0.6460    -0.2880     2.0120 h1         1 JKF       0.057033
     40 HAC          2.7730     5.6040     0.5840 h1         1 JKF       0.056367
     41 HACA         1.6530     5.4470    -0.7970 h1         1 JKF       0.056367
     42 HACB         1.1170     5.0470     0.8640 h1         1 JKF       0.056367
     43 HAH          4.8360    -4.2820     0.2680 ha         1 JKF       0.128000
     44 HAI          5.8540    -2.7130    -1.3850 ha         1 JKF       0.140000
     45 HAJ          3.0660    -3.4510     1.8190 ha         1 JKF       0.140000
     46 HAK         -4.8390     1.4570     2.0460 ha         1 JKF       0.131500
     47 HAL         -6.3340    -1.1430    -1.0460 ha         1 JKF       0.131500
     48 HAM         -2.5250     1.0360     1.3060 ha         1 JKF       0.128000
     49 HAN         -4.0250    -1.5840    -1.8110 ha         1 JKF       0.128000
     50 HAO         -1.9690     2.2020    -0.8510 ha         1 JKF       0.120000
     51 HAP         -1.0670    -3.3340    -1.9070 h4         1 JKF       0.049100
     52 HAQ         -0.2960     3.9320    -0.5260 ha         1 JKF       0.124000
     53 HAR         -0.3480    -3.9920     2.1660 h5         1 JKF       0.051100
     54 HAS          5.1630     1.6770     0.0150 ha         1 JKF       0.216000
     55 HAT          1.0620    -0.8250    -0.4530 ha         1 JKF       0.136000
     56 FAE          5.2020    -0.2240    -1.7130 f          1 JKF      -0.167000
     57 FAF          2.1610    -1.0210     1.9180 f          1 JKF      -0.167000
     58 ClAG        -7.3790     0.4950     1.0840 cl         1 JKF      -0.199000
@<TRIPOS>BOND
     1     1    19 1   
     2     1    34 1   
     3     1    35 1   
     4     1    36 1   
     5     2    31 1   
     6     2    37 1   
     7     2    38 1   
     8     2    39 1   
     9     3    32 1   
    10     3    40 1   
    11     3    41 1   
    12     3    42 1   
    13     4    28 2   
    14     5     6 ar  
    15     5     7 ar  
    16     5    43 1   
    17     6    21 ar  
    18     6    44 1   
    19     7    22 ar  
    20     7    45 1   
    21     8    10 ar  
    22     8    20 ar  
    23     8    46 1   
    24     9    11 ar  
    25     9    20 ar  
    26     9    47 1   
    27    10    23 ar  
    28    10    48 1   
    29    11    23 ar  
    30    11    49 1   
    31    12    14 ar  
    32    12    24 ar  
    33    12    50 1   
    34    13    18 1   
    35    13    27 2   
    36    13    51 1   
    37    14    30 ar  
    38    14    52 1   
    39    15    18 2   
    40    15    31 1   
    41    15    53 1   
    42    16    25 2   
    43    16    28 1   
    44    16    54 1   
    45    17    24 ar  
    46    17    29 ar  
    47    17    55 1   
    48    19    33 1   
    49    20    58 1   
    50    21    26 ar  
    51    21    56 1   
    52    22    26 ar  
    53    22    57 1   
    54    23    33 1   
    55    24    33 1   
    56    25    26 1   
    57    25    29 1   
    58    27    31 1   
    59    27    33 1   
    60    28    32 1   
    61    29    30 ar  
    62    30    32 1   
@<TRIPOS>SUBSTRUCTURE
     1 JKF         1 TEMP              0 ****  ****    0 ROOT
