@<TRIPOS>MOLECULE
JKF
   58    62     1     0     0
SMALL
bcc


@<TRIPOS>ATOM
      1 CAA         -2.0430     0.3840    -3.1080 c3         1 JKF       0.122700
      2 CAB         -1.0240    -1.3500     2.1010 c3         1 JKF       0.024600
      3 CAC          1.9800     4.9700    -0.0960 c3         1 JKF       0.068300
      4 OAD          4.5430     4.1380     0.3490 o          1 JKF      -0.618500
      5 CAH          4.1770    -3.2460     0.3770 ca         1 JKF      -0.060000
      6 CAI          4.5800    -2.5130    -0.7300 ca         1 JKF      -0.186000
      7 CAJ          3.4410    -2.6570     1.3960 ca         1 JKF      -0.186000
      8 CAK         -4.5320     0.7460     1.2310 ca         1 JKF      -0.128500
      9 CAL         -5.3240    -0.8560    -0.3820 ca         1 JKF      -0.128500
     10 CAM         -3.2480     0.6090     0.7200 ca         1 JKF      -0.105000
     11 CAN         -4.0370    -0.9830    -0.8750 ca         1 JKF      -0.105000
     12 CAO         -0.8820     1.9620    -0.6570 ca         1 JKF      -0.071000
     13 CAP         -0.8030    -2.9740    -1.1060 cc         1 JKF       0.330200
     14 CAQ          0.0710     2.9420    -0.4750 ca         1 JKF      -0.192000
     15 CAR         -0.4350    -3.4450     0.9290 cd         1 JKF       0.389400
     16 CAS          4.0310     1.8540     0.2680 cc         1 JKF      -0.216200
     17 CAT          0.7630     0.2730    -0.3920 ca         1 JKF      -0.040000
     18 NAU         -0.3910    -3.9670    -0.2660 nc         1 JKF      -0.678000
     19 OAV         -1.6510    -0.7060    -2.3050 os         1 JKF      -0.401600
     20 CAW         -5.5630     0.0140     0.6710 ca         1 JKF       0.034400
     21 CAX          4.2290    -1.1790    -0.7970 ca         1 JKF       0.180900
     22 CAY          3.1230    -1.3200     1.2810 ca         1 JKF       0.180900
     23 CAZ         -2.9790    -0.2480    -0.3410 ca         1 JKF      -0.114300
     24 CBA         -0.5600     0.6000    -0.6070 ca         1 JKF      -0.156300
     25 CBB          3.1160     0.8840     0.0960 cd         1 JKF       0.081600
     26 CBC          3.4960    -0.5420     0.1930 ca         1 JKF      -0.160800
     27 CBD         -1.1020    -1.8400    -0.4000 cd         1 JKF      -0.224900
     28 CBE          3.6980     3.2660     0.1990 c          1 JKF       0.707700
     29 CBF          1.7480     1.2390    -0.1790 ca         1 JKF      -0.124800
     30 CBG          1.4060     2.6020    -0.2270 ca         1 JKF       0.113600
     31 NBH         -0.8590    -2.1610     0.9150 na         1 JKF      -0.178900
     32 NBI          2.3710     3.5690    -0.0360 n          1 JKF      -0.346000
     33 CBJ         -1.5760    -0.5000    -0.9080 c3         1 JKF       0.357700
     34 HAA         -1.2760     1.1610    -3.1630 h1         1 JKF       0.035700
     35 HAAA        -2.1980    -0.0130    -4.1100 h1         1 JKF       0.035700
     36 HAAB        -2.9790     0.8430    -2.7760 h1         1 JKF       0.035700
     37 HAB         -2.0760    -1.2130     2.3400 h1         1 JKF       0.057033
     38 HABA        -0.5400    -1.8520     2.9350 h1         1 JKF       0.057033
     39 HABB        -0.5580    -0.3760     1.9740 h1         1 JKF       0.057033
     40 HAC          2.8490     5.5900     0.0830 h1         1 JKF       0.056367
     41 HACA         1.5720     5.2120    -1.0760 h1         1 JKF       0.056367
     42 HACB         1.2310     5.1890     0.6640 h1         1 JKF       0.056367
     43 HAH          4.4390    -4.2920     0.4470 ha         1 JKF       0.146000
     44 HAI          5.1490    -2.9690    -1.5280 ha         1 JKF       0.158000
     45 HAJ          3.1250    -3.2230     2.2620 ha         1 JKF       0.158000
     46 HAK         -4.7140     1.4180     2.0580 ha         1 JKF       0.149500
     47 HAL         -6.1290    -1.4360    -0.8120 ha         1 JKF       0.149500
     48 HAM         -2.4600     1.1880     1.1830 ha         1 JKF       0.146000
     49 HAN         -3.8640    -1.6750    -1.6890 ha         1 JKF       0.146000
     50 HAO         -1.8980     2.2820    -0.8460 ha         1 JKF       0.138000
     51 HAP         -0.8570    -3.1210    -2.1720 h4         1 JKF       0.049100
     52 HAQ         -0.2410     3.9740    -0.5330 ha         1 JKF       0.142000
     53 HAR         -0.1750    -3.9430     1.8520 h5         1 JKF       0.051100
     54 HAS          5.0640     1.6190     0.4850 ha         1 JKF       0.166000
     55 HAT          1.0630    -0.7660    -0.3940 ha         1 JKF       0.154000
     56 FAE          4.5940    -0.4630    -1.8660 f          1 JKF      -0.131900
     57 FAF          2.4140    -0.7300     2.2500 f          1 JKF      -0.131900
     58 CLAG        -7.1700     0.1760     1.2960 cl         1 JKF      -0.107400
@<TRIPOS>BOND
     1     1    19 1   
     2     1    34 1   
     3     1    35 1   
     4     1    36 1   
     5     2    31 1   
     6     2    37 1   
     7     2    38 1   
     8     2    39 1   
     9     3    32 1   
    10     3    40 1   
    11     3    41 1   
    12     3    42 1   
    13     4    28 2   
    14     5     6 ar  
    15     5     7 ar  
    16     5    43 1   
    17     6    21 ar  
    18     6    44 1   
    19     7    22 ar  
    20     7    45 1   
    21     8    10 ar  
    22     8    20 ar  
    23     8    46 1   
    24     9    11 ar  
    25     9    20 ar  
    26     9    47 1   
    27    10    23 ar  
    28    10    48 1   
    29    11    23 ar  
    30    11    49 1   
    31    12    14 ar  
    32    12    24 ar  
    33    12    50 1   
    34    13    18 1   
    35    13    27 2   
    36    13    51 1   
    37    14    30 ar  
    38    14    52 1   
    39    15    18 2   
    40    15    31 1   
    41    15    53 1   
    42    16    25 2   
    43    16    28 1   
    44    16    54 1   
    45    17    24 ar  
    46    17    29 ar  
    47    17    55 1   
    48    19    33 1   
    49    20    58 1   
    50    21    26 ar  
    51    21    56 1   
    52    22    26 ar  
    53    22    57 1   
    54    23    33 1   
    55    24    33 1   
    56    25    26 1   
    57    25    29 1   
    58    27    31 1   
    59    27    33 1   
    60    28    32 1   
    61    29    30 ar  
    62    30    32 1   
@<TRIPOS>SUBSTRUCTURE
     1 JKF         1 TEMP              0 ****  ****    0 ROOT
