@<TRIPOS>MOLECULE
JKG
   28    29     1     0     0
SMALL
abcg2


@<TRIPOS>ATOM
      1 C10         -2.1050    -0.7220     0.0530 ca         1 JKG      -0.058500
      2 C13         -4.3890     0.8420    -0.0550 ca         1 JKG      -0.178500
      3 C01          4.9020     0.1080    -0.7610 cc         1 JKG      -0.133000
      4 C02          4.0460     1.0500    -0.1230 cc         1 JKG      -0.135000
      5 C03          2.8050     0.5510     0.1340 cd         1 JKG      -0.219300
      6 S04          2.6680    -1.0770    -0.4160 ss         1 JKG       0.235000
      7 C05          4.2900    -1.0870    -0.9800 cd         1 JKG      -0.255000
      8 C06          1.6530     1.1960     0.8310 c3         1 JKG       0.235100
      9 N07          0.3990     0.7210     0.2880 n7         1 JKG      -0.877400
     10 C08         -0.7580     1.1830     1.0270 c3         1 JKG       0.218100
     11 C09         -2.0350     0.6010     0.4800 ca         1 JKG      -0.130300
     12 C11         -3.2910    -1.2640    -0.4210 ca         1 JKG      -0.178500
     13 C12         -4.4430    -0.4840    -0.4760 ca         1 JKG       0.140100
     14 C14         -3.1940     1.3690     0.4110 ca         1 JKG      -0.058500
     15 O15         -5.6240    -0.9560    -0.9280 oh         1 JKG      -0.534100
     16 H101        -1.2160    -1.3390     0.0800 ha         1 JKG       0.120000
     17 H131        -5.2770     1.4600    -0.1000 ha         1 JKG       0.120500
     18 H021         4.3400     2.0580     0.1360 ha         1 JKG       0.130000
     19 H051         4.6970    -1.9640    -1.4600 h4         1 JKG       0.148000
     20 H062         1.6750     0.9330     1.8940 h1         1 JKG       0.042200
     21 H061         1.7780     2.2880     0.7850 h1         1 JKG       0.042200
     22 H071         0.3160     1.0070    -0.6810 hn         1 JKG       0.421000
     23 H081        -0.6280     0.8700     2.0690 h1         1 JKG       0.035700
     24 H082        -0.8450     2.2800     1.0520 h1         1 JKG       0.035700
     25 H111        -3.3160    -2.2970    -0.7490 ha         1 JKG       0.120500
     26 H141        -3.1670     2.4060     0.7260 ha         1 JKG       0.120000
     27 H151        -5.5330    -1.8760    -1.2010 ho         1 JKG       0.464000
     28 H011         5.9220     0.3190    -1.0500 ha         1 JKG       0.131000
@<TRIPOS>BOND
     1     1    11 ar  
     2     1    12 ar  
     3     1    16 1   
     4     2    13 ar  
     5     2    14 ar  
     6     2    17 1   
     7     3     4 1   
     8     3     7 2   
     9     3    28 1   
    10     4     5 2   
    11     4    18 1   
    12     5     6 1   
    13     5     8 1   
    14     6     7 1   
    15     7    19 1   
    16     8     9 1   
    17     8    20 1   
    18     8    21 1   
    19     9    10 1   
    20     9    22 1   
    21    10    11 1   
    22    10    23 1   
    23    10    24 1   
    24    11    14 ar  
    25    12    13 ar  
    26    12    25 1   
    27    13    15 1   
    28    14    26 1   
    29    15    27 1   
@<TRIPOS>SUBSTRUCTURE
     1 JKG         1 TEMP              0 ****  ****    0 ROOT
