@<TRIPOS>MOLECULE
JKG
   28    29     1     0     0
SMALL
No Charge or Current Charge


@<TRIPOS>ATOM
      1 C10         -2.5140    -0.9050     0.6210 ca         1 JKG      -0.058500
      2 C13         -3.8550     1.1280    -0.7770 ca         1 JKG      -0.178500
      3 C01          4.4510     0.5980    -1.3730 cc         1 JKG      -0.133000
      4 C02          3.3750     1.1920    -0.6700 cc         1 JKG      -0.135000
      5 C03          2.8600     0.3960     0.3210 cd         1 JKG      -0.219300
      6 S04          3.7200    -1.1540     0.4130 ss         1 JKG       0.235000
      7 C05          4.7720    -0.6580    -0.9280 cd         1 JKG      -0.255000
      8 C06          1.7330     0.7050     1.2640 c3         1 JKG       0.235100
      9 N07          0.4470     0.3890     0.6310 n7         1 JKG      -0.877400
     10 C08         -0.7420     0.7270     1.4280 c3         1 JKG       0.218100
     11 C09         -2.0070     0.4090     0.6450 ca         1 JKG      -0.130300
     12 C11         -3.6870    -1.2000    -0.0990 ca         1 JKG      -0.178500
     13 C12         -4.3560    -0.1820    -0.7960 ca         1 JKG       0.140100
     14 C14         -2.6830     1.4260    -0.0590 ca         1 JKG      -0.058500
     15 O15         -5.4920    -0.4590    -1.4950 oh         1 JKG      -0.534100
     16 H101        -1.9960    -1.6980     1.1580 ha         1 JKG       0.120000
     17 H131        -4.3740     1.9150    -1.3180 ha         1 JKG       0.120500
     18 H021         3.0070     2.1870    -0.9060 ha         1 JKG       0.130000
     19 H051         5.5470    -1.3240    -1.2890 h4         1 JKG       0.148000
     20 H062         1.8640     0.1250     2.1880 h1         1 JKG       0.042200
     21 H061         1.7820     1.7700     1.5320 h1         1 JKG       0.042200
     22 H071         0.3980     0.9210    -0.2440 hn         1 JKG       0.421000
     23 H081        -0.7480     0.1580     2.3690 h1         1 JKG       0.035700
     24 H082        -0.7380     1.7940     1.6910 h1         1 JKG       0.035700
     25 H111        -4.0660    -2.2190    -0.1090 ha         1 JKG       0.120500
     26 H141        -2.3020     2.4450    -0.0490 ha         1 JKG       0.120000
     27 H151        -5.6900    -1.4150    -1.3970 ho         1 JKG       0.464000
     28 H011         4.9640     1.1050    -2.1860 ha         1 JKG       0.131000
@<TRIPOS>BOND
     1     1    11 ar  
     2     1    12 ar  
     3     1    16 1   
     4     2    13 ar  
     5     2    14 ar  
     6     2    17 1   
     7     3     4 1   
     8     3     7 2   
     9     3    28 1   
    10     4     5 2   
    11     4    18 1   
    12     5     6 1   
    13     5     8 1   
    14     6     7 1   
    15     7    19 1   
    16     8     9 1   
    17     8    20 1   
    18     8    21 1   
    19     9    10 1   
    20     9    22 1   
    21    10    11 1   
    22    10    23 1   
    23    10    24 1   
    24    11    14 ar  
    25    12    13 ar  
    26    12    25 1   
    27    13    15 1   
    28    14    26 1   
    29    15    27 1   
@<TRIPOS>SUBSTRUCTURE
     1 JKG         1 TEMP              0 ****  ****    0 ROOT
