@<TRIPOS>MOLECULE
JKH
   19    19     1     0     0
SMALL
No Charge or Current Charge


@<TRIPOS>ATOM
      1 C           -1.8950     0.1430    -0.0240 c          1 JKH       0.719000
      2 N            0.1640    -1.3930     0.5520 n7         1 JKH      -0.826400
      3 CA          -0.4640    -0.0150     0.6350 c5         1 JKH       0.017500
      4 CD           1.5730    -1.1980     0.1200 c5         1 JKH       0.152800
      5 CB           0.5460     0.9220    -0.0860 c5         1 JKH      -0.110400
      6 CG           1.8560     0.2990     0.4240 c5         1 JKH       0.052300
      7 NG2          2.9950     0.8240    -0.5020 nz         1 JKH      -0.963000
      8 O           -2.2290    -0.6390    -0.9070 o          1 JKH      -0.690500
      9 OXT         -2.6640     0.9810     0.4270 o          1 JKH      -0.690500
     10 HA          -0.5570     0.2830     1.6890 h1         1 JKH       0.073700
     11 HD2          2.2620    -1.8710     0.6500 h1         1 JKH       0.039700
     12 HD3          1.6650    -1.4000    -0.9570 h1         1 JKH       0.039700
     13 HB3          0.4470     0.8620    -1.1770 hc         1 JKH       0.070200
     14 HB2          0.4290     1.9720     0.2060 hc         1 JKH       0.070200
     15 HG           2.0680     0.5030     1.4800 hx         1 JKH       0.099700
     16 HG22         3.1500     1.8400    -0.4110 hn         1 JKH       0.495667
     17 HG21         3.9100     0.3900    -0.3010 hn         1 JKH       0.495667
     18 HG23         2.8210     0.6570    -1.5040 hn         1 JKH       0.495667
     19 H1          -0.3310    -1.9360    -0.1740 hn         1 JKH       0.460000
@<TRIPOS>BOND
     1     1     3 1   
     2     1     8 1   
     3     1     9 1   
     4     2     3 1   
     5     2     4 1   
     6     2    19 1   
     7     3     5 1   
     8     3    10 1   
     9     4     6 1   
    10     4    11 1   
    11     4    12 1   
    12     5     6 1   
    13     5    13 1   
    14     5    14 1   
    15     6     7 1   
    16     6    15 1   
    17     7    16 1   
    18     7    17 1   
    19     7    18 1   
@<TRIPOS>SUBSTRUCTURE
     1 JKH         1 TEMP              0 ****  ****    0 ROOT
