@<TRIPOS>MOLECULE
JKH
   19    19     1     0     0
SMALL
bcc


@<TRIPOS>ATOM
      1 C           -1.8750     0.0890    -0.0010 c          1 JKH       0.929600
      2 N            0.1390    -1.3590     0.3750 n7         1 JKH      -0.771200
      3 CA          -0.4670    -0.0520     0.6070 c5         1 JKH       0.017500
      4 CD           1.5760    -1.1890     0.1850 c5         1 JKH       0.152800
      5 CB           0.5060     0.9630    -0.0070 c5         1 JKH      -0.110400
      6 CG           1.8370     0.3200     0.3260 c5         1 JKH       0.080500
      7 NG2          2.9440     0.7790    -0.5530 nz         1 JKH      -0.825600
      8 O           -2.2350    -0.7840    -0.8140 o          1 JKH      -0.795800
      9 OXT         -2.5110     1.0970     0.3550 o          1 JKH      -0.795800
     10 HA          -0.5340     0.1420     1.6840 h1         1 JKH       0.073700
     11 HD2          2.1600    -1.7410     0.9250 h1         1 JKH       0.039700
     12 HD3          1.8910    -1.5450    -0.8010 h1         1 JKH       0.039700
     13 HB3          0.3710     1.0080    -1.0930 hc         1 JKH       0.070200
     14 HB2          0.4010     1.9690     0.3960 hc         1 JKH       0.070200
     15 HG           2.1440     0.5710     1.3410 hx         1 JKH       0.099700
     16 HG22         3.1090     1.7810    -0.4580 hn         1 JKH       0.440467
     17 HG21         3.8250     0.3170    -0.3290 hn         1 JKH       0.440467
     18 HG23         2.7530     0.5980    -1.5390 hn         1 JKH       0.440467
     19 H1          -0.2880    -1.7400    -0.4600 hn         1 JKH       0.404800
@<TRIPOS>BOND
     1     1     3 1   
     2     1     8 1   
     3     1     9 1   
     4     2     3 1   
     5     2     4 1   
     6     2    19 1   
     7     3     5 1   
     8     3    10 1   
     9     4     6 1   
    10     4    11 1   
    11     4    12 1   
    12     5     6 1   
    13     5    13 1   
    14     5    14 1   
    15     6     7 1   
    16     6    15 1   
    17     7    16 1   
    18     7    17 1   
    19     7    18 1   
@<TRIPOS>SUBSTRUCTURE
     1 JKH         1 TEMP              0 ****  ****    0 ROOT
