@<TRIPOS>MOLECULE
JKI
   36    38     1     0     0
SMALL
No Charge or Current Charge


@<TRIPOS>ATOM
      1 C4          10.6730    -6.9770     9.4790 ca         1 JKI      -0.115000
      2 C5          11.4850    -8.0390     8.9990 cp         1 JKI      -0.111500
      3 C6          12.6350    -8.3770     9.7690 ca         1 JKI      -0.102000
      4 C7          11.1520    -8.7790     7.7270 cp         1 JKI       0.403500
      5 C8          11.9260   -10.1090     5.9700 ca         1 JKI       0.343900
      6 C10          9.5790    -9.5320     6.0100 ca         1 JKI      -0.073000
      7 C1          12.9580    -7.7030    10.9630 ca         1 JKI       0.298000
      8 C2          12.1240    -6.6660    11.4060 ca         1 JKI      -0.139000
      9 C3          10.9880    -6.3000    10.6680 ca         1 JKI      -0.088000
     10 C9          10.6520   -10.1850     5.3870 ca         1 JKI      -0.162000
     11 O1          16.1780    -8.8790    12.6330 o          1 JKI      -0.532000
     12 C11          9.8360    -8.8230     7.1950 ca         1 JKI      -0.150000
     13 C12         13.8650   -13.2490    10.7590 ca         1 JKI       0.029100
     14 C13         13.7210   -12.6200    12.0070 ca         1 JKI      -0.106500
     15 C14         14.2020   -11.3130    12.1950 ca         1 JKI      -0.006500
     16 C15         14.8270   -10.6320    11.1310 ca         1 JKI      -0.270500
     17 C16         14.9740   -11.2690     9.8790 ca         1 JKI      -0.006500
     18 C17         14.4910   -12.5760     9.6970 ca         1 JKI      -0.106500
     19 N1          12.1710    -9.4270     7.1110 nb         1 JKI      -0.670000
     20 N2          14.0670    -8.0320    11.7390 nu         1 JKI      -0.929100
     21 O2          15.9310    -8.3900    10.1280 o          1 JKI      -0.532000
     22 S1          15.4230    -8.9540    11.3810 sy         1 JKI       1.175600
     23 H1           9.7950    -6.6580     8.9230 ha         1 JKI       0.117000
     24 H2          13.2710    -9.1830     9.4280 ha         1 JKI       0.139000
     25 H3          12.7780   -10.6100     5.5120 h4         1 JKI       0.019100
     26 H4           8.5750    -9.5760     5.5910 ha         1 JKI       0.120000
     27 H5          12.3550    -6.1370    12.3270 ha         1 JKI       0.116000
     28 H6          10.3520    -5.4890    11.0160 ha         1 JKI       0.117000
     29 H7          10.5050   -10.7470     4.4690 ha         1 JKI       0.125000
     30 H8           9.0170    -8.3260     7.7040 ha         1 JKI       0.125000
     31 H9          13.2360   -13.1430    12.8280 ha         1 JKI       0.134500
     32 H10         14.0810   -10.8290    13.1640 ha         1 JKI       0.139500
     33 H11         15.4560   -10.7570     9.0470 ha         1 JKI       0.139500
     34 H12         14.6010   -13.0650     8.7320 ha         1 JKI       0.134500
     35 H13         14.3300    -7.4070    12.4880 hn         1 JKI       0.508000
     36 Br          13.2060   -15.0260    10.5060 br         1 JKI      -0.083100
@<TRIPOS>BOND
     1     1     2 ar  
     2     1     9 ar  
     3     1    23 1   
     4     2     3 ar  
     5     2     4 1   
     6     3     7 ar  
     7     3    24 1   
     8     4    12 ar  
     9     4    19 ar  
    10     5    10 ar  
    11     5    19 ar  
    12     5    25 1   
    13     6    10 ar  
    14     6    12 ar  
    15     6    26 1   
    16     7     8 ar  
    17     7    20 1   
    18     8     9 ar  
    19     8    27 1   
    20     9    28 1   
    21    10    29 1   
    22    11    22 2   
    23    12    30 1   
    24    13    14 ar  
    25    13    18 ar  
    26    13    36 1   
    27    14    15 ar  
    28    14    31 1   
    29    15    16 ar  
    30    15    32 1   
    31    16    17 ar  
    32    16    22 1   
    33    17    18 ar  
    34    17    33 1   
    35    18    34 1   
    36    20    22 1   
    37    20    35 1   
    38    21    22 2   
@<TRIPOS>SUBSTRUCTURE
     1 JKI         1 TEMP              0 ****  ****    0 ROOT
