@<TRIPOS>MOLECULE
JKI
   36    38     1     0     0
SMALL
abcg2


@<TRIPOS>ATOM
      1 C4          10.7770    -6.7940     9.3260 ca         1 JKI      -0.115000
      2 C5          11.4340    -7.9730     8.9800 cp         1 JKI      -0.111500
      3 C6          12.4370    -8.4640     9.8120 ca         1 JKI      -0.102000
      4 C7          11.0900    -8.7220     7.7500 cp         1 JKI       0.403500
      5 C8          11.7750   -10.2140     6.1550 ca         1 JKI       0.343900
      6 C10          9.5710    -9.3420     6.0040 ca         1 JKI      -0.073000
      7 C1          12.7910    -7.7840    10.9700 ca         1 JKI       0.298000
      8 C2          12.1290    -6.6070    11.3120 ca         1 JKI      -0.139000
      9 C3          11.1220    -6.1260    10.4910 ca         1 JKI      -0.088000
     10 C9          10.5630   -10.1600     5.4850 ca         1 JKI      -0.162000
     11 O1          16.0800    -8.8670    12.4980 o          1 JKI      -0.532000
     12 C11          9.8330    -8.6150     7.1530 ca         1 JKI      -0.150000
     13 C12         14.2040   -13.3340    10.7920 ca         1 JKI       0.029100
     14 C13         13.9870   -12.7340    12.0270 ca         1 JKI      -0.106500
     15 C14         14.2850   -11.3930    12.1870 ca         1 JKI      -0.006500
     16 C15         14.7850   -10.6710    11.1110 ca         1 JKI      -0.270500
     17 C16         15.0050   -11.2710     9.8820 ca         1 JKI      -0.006500
     18 C17         14.7110   -12.6170     9.7190 ca         1 JKI      -0.106500
     19 N1          12.0350    -9.5190     7.2520 nb         1 JKI      -0.670000
     20 N2          13.7770    -8.2780    11.8400 nu         1 JKI      -0.929100
     21 O2          15.6080    -8.4290    10.0630 o          1 JKI      -0.532000
     22 S1          15.2000    -8.9660    11.3480 sy         1 JKI       1.175600
     23 H1          10.0090    -6.3780     8.6880 ha         1 JKI       0.117000
     24 H2          12.9120    -9.3970     9.5430 ha         1 JKI       0.139000
     25 H3          12.5760   -10.8470     5.7870 h4         1 JKI       0.019100
     26 H4           8.6030    -9.2760     5.5270 ha         1 JKI       0.120000
     27 H5          12.4040    -6.0700    12.2110 ha         1 JKI       0.116000
     28 H6          10.6130    -5.2090    10.7570 ha         1 JKI       0.117000
     29 H7          10.4030   -10.7450     4.5900 ha         1 JKI       0.125000
     30 H8           9.0640    -7.9910     7.5850 ha         1 JKI       0.125000
     31 H9          13.5920   -13.2980    12.8610 ha         1 JKI       0.134500
     32 H10         14.1110   -10.9220    13.1460 ha         1 JKI       0.139500
     33 H11         15.3970   -10.7090     9.0460 ha         1 JKI       0.139500
     34 H12         14.8790   -13.0860     8.7600 ha         1 JKI       0.134500
     35 H13         13.8590    -7.8200    12.7400 hn         1 JKI       0.508000
     36 BR          13.7940   -15.1580    10.5720 br         1 JKI      -0.083100
@<TRIPOS>BOND
     1     1     2 ar  
     2     1     9 ar  
     3     1    23 1   
     4     2     3 ar  
     5     2     4 1   
     6     3     7 ar  
     7     3    24 1   
     8     4    12 ar  
     9     4    19 ar  
    10     5    10 ar  
    11     5    19 ar  
    12     5    25 1   
    13     6    10 ar  
    14     6    12 ar  
    15     6    26 1   
    16     7     8 ar  
    17     7    20 1   
    18     8     9 ar  
    19     8    27 1   
    20     9    28 1   
    21    10    29 1   
    22    11    22 2   
    23    12    30 1   
    24    13    14 ar  
    25    13    18 ar  
    26    13    36 1   
    27    14    15 ar  
    28    14    31 1   
    29    15    16 ar  
    30    15    32 1   
    31    16    17 ar  
    32    16    22 1   
    33    17    18 ar  
    34    17    33 1   
    35    18    34 1   
    36    20    22 1   
    37    20    35 1   
    38    21    22 2   
@<TRIPOS>SUBSTRUCTURE
     1 JKI         1 TEMP              0 ****  ****    0 ROOT
