@<TRIPOS>MOLECULE
JKJ
   35    36     1     0     0
SMALL
abcg2


@<TRIPOS>ATOM
      1 C01         -2.0950     3.1170    -0.7500 c3         1 JKJ       0.146900
      2 O02         -1.4820     2.0470    -0.0760 os         1 JKJ      -0.460000
      3 C03         -0.1020     1.9780    -0.3210 c3         1 JKJ       0.148600
      4 C04          0.4640     0.7720     0.4150 c6         1 JKJ       0.255500
      5 N05         -0.0500    -0.4920    -0.1290 n3         1 JKJ      -0.794500
      6 C06          0.9390    -1.3150    -0.8450 c6         1 JKJ       0.237500
      7 C07          1.9700    -1.8290     0.1550 c6         1 JKJ      -0.086400
      8 C08          2.4310    -0.6310     1.0060 c6         1 JKJ      -0.102900
      9 C09          2.0010     0.6820     0.3420 c6         1 JKJ       0.172000
     10 O10          2.4950     1.8020     1.0370 oh         1 JKJ      -0.649000
     11 C11          2.4490     0.6530    -1.1230 c6         1 JKJ      -0.102900
     12 C12          1.6330    -0.4200    -1.8670 c6         1 JKJ      -0.086400
     13 S13         -1.4000    -1.2040     0.4790 s6         1 JKJ       1.233100
     14 O14         -1.1730    -2.6440     0.5780 o          1 JKJ      -0.544000
     15 O15         -1.8100    -0.4930     1.6820 o          1 JKJ      -0.544000
     16 C16         -2.6400    -0.9710    -0.7710 c3         1 JKJ      -0.350100
     17 H013        -1.6990     4.0860    -0.4240 h1         1 JKJ       0.030033
     18 H011        -1.9650     3.0480    -1.8370 h1         1 JKJ       0.030033
     19 H012        -3.1610     3.0880    -0.5290 h1         1 JKJ       0.030033
     20 H031         0.0910     1.8930    -1.3990 h1         1 JKJ       0.037200
     21 H032         0.3990     2.8910     0.0290 h1         1 JKJ       0.037200
     22 H041         0.1950     0.8570     1.4720 h1         1 JKJ       0.098700
     23 H061         0.4310    -2.1290    -1.3580 h1         1 JKJ       0.075700
     24 H072         1.5410    -2.6120     0.7780 hc         1 JKJ       0.056950
     25 H071         2.8060    -2.2740    -0.3890 hc         1 JKJ       0.056950
     26 H082         2.0090    -0.6810     2.0130 hc         1 JKJ       0.051200
     27 H081         3.5180    -0.6320     1.1180 hc         1 JKJ       0.051200
     28 H101         3.4560     1.7990     0.9680 ho         1 JKJ       0.448000
     29 H112         2.3240     1.6360    -1.5810 hc         1 JKJ       0.051200
     30 H111         3.5180     0.4250    -1.1610 hc         1 JKJ       0.051200
     31 H122         2.2780    -1.0370    -2.4930 hc         1 JKJ       0.056950
     32 H121         0.8880     0.0310    -2.5240 hc         1 JKJ       0.056950
     33 H162        -2.2990    -1.4320    -1.6960 h1         1 JKJ       0.101700
     34 H163        -3.5560    -1.4530    -0.4350 h1         1 JKJ       0.101700
     35 H161        -2.8000     0.0920    -0.9170 h1         1 JKJ       0.101700
@<TRIPOS>BOND
     1     1     2 1   
     2     1    17 1   
     3     1    18 1   
     4     1    19 1   
     5     2     3 1   
     6     3     4 1   
     7     3    20 1   
     8     3    21 1   
     9     4     5 1   
    10     4     9 1   
    11     4    22 1   
    12     5     6 1   
    13     5    13 1   
    14     6     7 1   
    15     6    12 1   
    16     6    23 1   
    17     7     8 1   
    18     7    24 1   
    19     7    25 1   
    20     8     9 1   
    21     8    26 1   
    22     8    27 1   
    23     9    10 1   
    24     9    11 1   
    25    10    28 1   
    26    11    12 1   
    27    11    29 1   
    28    11    30 1   
    29    12    31 1   
    30    12    32 1   
    31    13    14 2   
    32    13    15 2   
    33    13    16 1   
    34    16    33 1   
    35    16    34 1   
    36    16    35 1   
@<TRIPOS>SUBSTRUCTURE
     1 JKJ         1 TEMP              0 ****  ****    0 ROOT
