@<TRIPOS>MOLECULE
JKJ
   35    36     1     0     0
SMALL
No Charge or Current Charge


@<TRIPOS>ATOM
      1 C01         -2.2390     3.2870    -0.5210 c3         1 JKJ       0.146900
      2 O02         -1.5790     2.1400     0.0390 os         1 JKJ      -0.460000
      3 C03         -0.1950     2.0010    -0.3450 c3         1 JKJ       0.148600
      4 C04          0.4300     0.7080     0.2870 c6         1 JKJ       0.255500
      5 N05         -0.0730    -0.5590    -0.3810 n3         1 JKJ      -0.794500
      6 C06          1.0360    -1.4420    -0.8390 c6         1 JKJ       0.237500
      7 C07          1.9440    -1.8150     0.3710 c6         1 JKJ      -0.086400
      8 C08          2.5150    -0.5230     1.0350 c6         1 JKJ      -0.102900
      9 C09          2.0150     0.7390     0.2670 c6         1 JKJ       0.172000
     10 O10          2.5550     1.9160     0.8850 oh         1 JKJ      -0.649000
     11 C11          2.5080     0.6280    -1.2070 c6         1 JKJ      -0.102900
     12 C12          1.8890    -0.6430    -1.8690 c6         1 JKJ      -0.086400
     13 S13         -1.4750    -1.3210     0.2850 s6         1 JKJ       1.233100
     14 O14         -1.2510    -2.7680     0.2080 o          1 JKJ      -0.544000
     15 O15         -1.7340    -0.7180     1.5960 o          1 JKJ      -0.544000
     16 C16         -2.7810    -0.8960    -0.8510 c3         1 JKJ      -0.350100
     17 H013        -1.7440     4.2150    -0.2060 h1         1 JKJ       0.030033
     18 H011        -2.2330     3.2440    -1.6180 h1         1 JKJ       0.030033
     19 H012        -3.2840     3.3260    -0.1860 h1         1 JKJ       0.030033
     20 H031        -0.0990     1.9430    -1.4370 h1         1 JKJ       0.037200
     21 H032         0.3680     2.8790    -0.0030 h1         1 JKJ       0.037200
     22 H041         0.1610     0.7280     1.3520 h1         1 JKJ       0.098700
     23 H061         0.6610    -2.3530    -1.3320 h1         1 JKJ       0.075700
     24 H072         1.3810    -2.4020     1.1070 hc         1 JKJ       0.056950
     25 H071         2.7680    -2.4580     0.0310 hc         1 JKJ       0.056950
     26 H082         2.1990    -0.4750     2.0870 hc         1 JKJ       0.051200
     27 H081         3.6140    -0.5610     1.0430 hc         1 JKJ       0.051200
     28 H101         3.5320     1.8320     0.8480 ho         1 JKJ       0.448000
     29 H112         2.2320     1.5240    -1.7800 hc         1 JKJ       0.051200
     30 H111         3.6040     0.5680    -1.2390 hc         1 JKJ       0.051200
     31 H122         2.6840    -1.2830    -2.2750 hc         1 JKJ       0.056950
     32 H121         1.2590    -0.3540    -2.7210 hc         1 JKJ       0.056950
     33 H162        -2.4850    -1.2650    -1.8380 h1         1 JKJ       0.101700
     34 H163        -3.6940    -1.3850    -0.4980 h1         1 JKJ       0.101700
     35 H161        -2.8860     0.1910    -0.8490 h1         1 JKJ       0.101700
@<TRIPOS>BOND
     1     1     2 1   
     2     1    17 1   
     3     1    18 1   
     4     1    19 1   
     5     2     3 1   
     6     3     4 1   
     7     3    20 1   
     8     3    21 1   
     9     4     5 1   
    10     4     9 1   
    11     4    22 1   
    12     5     6 1   
    13     5    13 1   
    14     6     7 1   
    15     6    12 1   
    16     6    23 1   
    17     7     8 1   
    18     7    24 1   
    19     7    25 1   
    20     8     9 1   
    21     8    26 1   
    22     8    27 1   
    23     9    10 1   
    24     9    11 1   
    25    10    28 1   
    26    11    12 1   
    27    11    29 1   
    28    11    30 1   
    29    12    31 1   
    30    12    32 1   
    31    13    14 2   
    32    13    15 2   
    33    13    16 1   
    34    16    33 1   
    35    16    34 1   
    36    16    35 1   
@<TRIPOS>SUBSTRUCTURE
     1 JKJ         1 TEMP              0 ****  ****    0 ROOT
