@<TRIPOS>MOLECULE
JKK
   26    26     1     0     0
SMALL
No Charge or Current Charge


@<TRIPOS>ATOM
      1 CAE          3.9130     2.0460    -0.4320 ca         1 JKK      -0.113000
      2 CAF          4.6100     0.8390    -0.6130 ca         1 JKK      -0.117000
      3 CAG          2.6140     2.0350     0.1070 ca         1 JKK      -0.116000
      4 CAH          2.7080    -0.3900     0.2840 ca         1 JKK      -0.076000
      5 CAI         -1.7680     0.2750     0.5200 c3         1 JKK       0.196800
      6 CAJ         -2.6260    -0.2260    -0.6390 c3         1 JKK      -0.359400
      7 CAM          4.0050    -0.3770    -0.2550 ca         1 JKK       0.115000
      8 CAN          2.0040     0.8160     0.4690 ca         1 JKK      -0.063300
      9 NAL         -0.3730     0.3050     0.0640 n7         1 JKK      -0.868400
     10 OAA         -4.7140     1.0650     0.1700 o          1 JKK      -0.696867
     11 OAB         -5.0130    -0.8100    -1.4130 o          1 JKK      -0.696867
     12 OAC         -4.3930    -1.2650     0.9360 o          1 JKK      -0.696867
     13 SAO         -4.3670    -0.3180    -0.1870 s6         1 JKK       1.323600
     14 Cl           4.8770    -1.8890    -0.4830 cl         1 JKK      -0.224000
     15 H1           4.3790     2.9900    -0.7090 ha         1 JKK       0.106000
     16 H2           5.6140     0.8450    -1.0290 ha         1 JKK       0.118000
     17 H3           2.0820     2.9730     0.2430 ha         1 JKK       0.112000
     18 H4           2.2470    -1.3370     0.5540 ha         1 JKK       0.157000
     19 H5          -2.0990     1.2790     0.8220 h1         1 JKK       0.041700
     20 H6          -1.8770    -0.3960     1.3840 h1         1 JKK       0.041700
     21 H7          -2.5620     0.4510    -1.4970 h1         1 JKK       0.070700
     22 H8          -2.3270    -1.2350    -0.9380 h1         1 JKK       0.070700
     23 H9           0.5940     0.1550     1.9480 h1         1 JKK       0.035200
     24 H10          0.3300     1.8120     1.3840 h1         1 JKK       0.035200
     25 H11         -0.3240     0.9210    -0.7540 hn         1 JKK       0.404000
     26 CAK          0.5990     0.7980     1.0560 c3         1 JKK       0.201100
@<TRIPOS>BOND
     1     1     2 ar  
     2     1     3 ar  
     3     1    15 1   
     4     2     7 ar  
     5     2    16 1   
     6     3     8 ar  
     7     3    17 1   
     8     4     7 ar  
     9     4     8 ar  
    10     4    18 1   
    11     5     6 1   
    12     5     9 1   
    13     5    19 1   
    14     5    20 1   
    15     6    13 1   
    16     6    21 1   
    17     6    22 1   
    18     7    14 1   
    19     8    26 1   
    20     9    25 1   
    21     9    26 1   
    22    10    13 1   
    23    11    13 1   
    24    12    13 1   
    25    23    26 1   
    26    24    26 1   
@<TRIPOS>SUBSTRUCTURE
     1 JKK         1 TEMP              0 ****  ****    0 ROOT
