@<TRIPOS>MOLECULE
JKK
   26    26     1     0     0
SMALL
bcc


@<TRIPOS>ATOM
      1 CAE          4.1870     1.9150     0.0910 ca         1 JKK      -0.131000
      2 CAF          4.6650     0.6990    -0.3730 ca         1 JKK      -0.135000
      3 CAG          2.8510     2.0630     0.4380 ca         1 JKK      -0.134000
      4 CAH          2.4420    -0.2300    -0.1360 ca         1 JKK      -0.094000
      5 CAI         -1.7350     0.4000     0.3680 c3         1 JKK       0.196800
      6 CAJ         -2.6190    -0.3900    -0.5800 c3         1 JKK      -0.248600
      7 CAM          3.7760    -0.3600    -0.4800 ca         1 JKK       0.023400
      8 CAN          1.9690     0.9930     0.3340 ca         1 JKK      -0.063300
      9 NAL         -0.3680     0.4140    -0.1180 n7         1 JKK      -0.813200
     10 OAA         -4.8370     0.7820     0.1840 o          1 JKK      -0.696867
     11 OAB         -5.0020    -1.3670    -1.0080 o          1 JKK      -0.696867
     12 OAC         -4.1790    -1.3070     1.3140 o          1 JKK      -0.696867
     13 SAO         -4.3020    -0.5860     0.0310 s6         1 JKK       1.212800
     14 CL           4.3520    -1.8920    -1.0630 cl         1 JKK      -0.132400
     15 H1           4.8650     2.7540     0.1750 ha         1 JKK       0.124000
     16 H2           5.7040     0.5810    -0.6480 ha         1 JKK       0.136000
     17 H3           2.4910     3.0220     0.7920 ha         1 JKK       0.130000
     18 H4           1.7630    -1.0680    -0.2330 ha         1 JKK       0.175000
     19 H5          -2.1500     1.4090     0.5060 h1         1 JKK       0.041700
     20 H6          -1.7390    -0.0790     1.3510 h1         1 JKK       0.041700
     21 H7          -2.6870     0.1010    -1.5540 h1         1 JKK       0.070700
     22 H8          -2.2080    -1.3900    -0.7360 h1         1 JKK       0.070700
     23 H9           0.4200     0.7210     1.7650 h1         1 JKK       0.035200
     24 H10          0.2860     2.2050     0.8490 h1         1 JKK       0.035200
     25 H11         -0.3420     0.8360    -1.0390 hn         1 JKK       0.348800
     26 CAK          0.5300     1.1370     0.7580 c3         1 JKK       0.201100
@<TRIPOS>BOND
     1     1     2 ar  
     2     1     3 ar  
     3     1    15 1   
     4     2     7 ar  
     5     2    16 1   
     6     3     8 ar  
     7     3    17 1   
     8     4     7 ar  
     9     4     8 ar  
    10     4    18 1   
    11     5     6 1   
    12     5     9 1   
    13     5    19 1   
    14     5    20 1   
    15     6    13 1   
    16     6    21 1   
    17     6    22 1   
    18     7    14 1   
    19     8    26 1   
    20     9    25 1   
    21     9    26 1   
    22    10    13 1   
    23    11    13 1   
    24    12    13 1   
    25    23    26 1   
    26    24    26 1   
@<TRIPOS>SUBSTRUCTURE
     1 JKK         1 TEMP              0 ****  ****    0 ROOT
