@<TRIPOS>MOLECULE
JKL
   70    72     1     0     0
SMALL
No Charge or Current Charge


@<TRIPOS>ATOM
      1 C13          8.1150     4.2320    23.8120 c6         1 JKL      -0.089400
      2 C15         10.4970     5.0020    24.5070 c6         1 JKL      -0.078400
      3 C17         10.0430     2.5760    23.7880 c6         1 JKL      -0.089400
      4 C20          5.1090     1.5680    17.8930 ca         1 JKL      -0.167000
      5 C21          5.9590     1.2590    16.8190 ca         1 JKL       0.342900
      6 C24          9.0930    -1.1490    21.6200 ca         1 JKL      -0.058000
      7 C26         11.4090    -1.9110    21.6680 ca         1 JKL      -0.100500
      8 C28         10.3390    -1.1710    23.7130 ca         1 JKL      -0.100500
      9 C01          5.9820    -4.0170    22.9030 c3         1 JKL      -0.131100
     10 C02          7.3900    -4.0260    22.2730 c3         1 JKL       0.182300
     11 C04          7.4330    -3.4980    20.8240 c3         1 JKL      -0.154400
     12 C05          6.9350    -2.0490    20.7140 c          1 JKL       0.609100
     13 C08          7.3340     0.4260    20.7940 c3         1 JKL       0.098000
     14 C09          8.3700     1.5220    21.1860 c          1 JKL       0.596100
     15 C12          8.9360     3.2620    22.9290 c6         1 JKL       0.108700
     16 C14          8.9970     5.3900    24.3640 c6         1 JKL      -0.070400
     17 C16         10.6630     3.5080    24.8690 c6         1 JKL      -0.070400
     18 C18          6.8070     0.7340    19.3900 ca         1 JKL      -0.136300
     19 C19          5.5340     1.3040    19.2050 ca         1 JKL      -0.054000
     20 C23          7.5950     0.4600    18.2530 ca         1 JKL       0.376900
     21 C25         10.2140    -1.6820    20.9650 ca         1 JKL      -0.102500
     22 C27         11.4990    -1.6440    23.0580 ca         1 JKL      -0.052300
     23 C29          9.1480    -0.9430    23.0070 ca         1 JKL      -0.102500
     24 C30         12.8030    -1.8540    23.8730 c3         1 JKL      -0.001700
     25 C31         13.9900    -2.3580    23.0050 c3         1 JKL      -0.084100
     26 C32         12.5470    -2.9030    24.9890 c3         1 JKL      -0.084100
     27 C33         13.2220    -0.5050    24.5190 c3         1 JKL      -0.084100
     28 N07          7.8470    -0.9760    20.9270 n          1 JKL      -0.246400
     29 N11          8.0640     2.2520    22.3180 ns         1 JKL      -0.501900
     30 N22          7.1850     0.7130    16.9860 nb         1 JKL      -0.671000
     31 O03          7.8750    -5.3690    22.2730 oh         1 JKL      -0.661000
     32 O06          5.7580    -1.8400    20.4420 o          1 JKL      -0.587100
     33 O10          9.3780     1.7550    20.5290 o          1 JKL      -0.576100
     34 H1           7.2760     4.6510    23.2400 hc         1 JKL       0.044450
     35 H2           7.6710     3.6760    24.6490 hc         1 JKL       0.044450
     36 H3          11.0240     5.2070    23.5650 hc         1 JKL       0.043700
     37 H4          10.9750     5.6340    25.2690 hc         1 JKL       0.043700
     38 H5           9.6330     1.6900    24.2920 hc         1 JKL       0.044450
     39 H6          10.8320     2.2040    23.1200 hc         1 JKL       0.044450
     40 H7           4.1330     2.0060    17.7040 ha         1 JKL       0.122000
     41 H8           5.6500     1.4540    15.7930 h4         1 JKL       0.017100
     42 H9          12.2550    -2.2950    21.1080 ha         1 JKL       0.117000
     43 H10         10.3510    -0.9750    24.7820 ha         1 JKL       0.117000
     44 H12          5.6040    -2.9930    22.9990 hc         1 JKL       0.045367
     45 H13          5.2750    -4.5910    22.2910 hc         1 JKL       0.045367
     46 H14          8.0450    -3.4030    22.8950 h1         1 JKL       0.029700
     47 H15          6.8090    -4.1400    20.1920 hc         1 JKL       0.082700
     48 H16          8.4750    -3.5590    20.5000 hc         1 JKL       0.082700
     49 H17          6.4980     0.5230    21.4980 h1         1 JKL       0.065700
     50 H18          9.4110     3.8460    22.1260 h1         1 JKL       0.082700
     51 H19          8.9170     6.2650    23.7040 hc         1 JKL       0.040700
     52 H20          8.6000     5.7080    25.3380 hc         1 JKL       0.040700
     53 H21         10.1770     3.3190    25.8370 hc         1 JKL       0.040700
     54 H22         11.7250     3.2650    25.0080 hc         1 JKL       0.040700
     55 H23          4.8900     1.5350    20.0510 ha         1 JKL       0.114000
     56 H24          8.5860     0.0200    18.3550 h4         1 JKL       0.023100
     57 H25         10.1710    -1.8930    19.8980 ha         1 JKL       0.118500
     58 H26          8.2690    -0.5910    23.5430 ha         1 JKL       0.118500
     59 H27         14.8930    -2.4840    23.6140 hc         1 JKL       0.036700
     60 H28         13.7630    -3.3290    22.5490 hc         1 JKL       0.036700
     61 H29         14.2280    -1.6430    22.2070 hc         1 JKL       0.036700
     62 H30         11.7800    -2.5640    25.6950 hc         1 JKL       0.036700
     63 H31         12.2110    -3.8530    24.5560 hc         1 JKL       0.036700
     64 H32         13.4610    -3.0970    25.5630 hc         1 JKL       0.036700
     65 H33         12.4650    -0.1370    25.2220 hc         1 JKL       0.036700
     66 H34         14.1630    -0.6100    25.0730 hc         1 JKL       0.036700
     67 H35         13.3670     0.2630    23.7490 hc         1 JKL       0.036700
     68 H36          7.2020     2.0180    22.7950 hn         1 JKL       0.309500
     69 H37          7.9170    -5.6580    23.2110 ho         1 JKL       0.444000
     70 H11          6.0040    -4.4570    23.9070 hc         1 JKL       0.045367
@<TRIPOS>BOND
     1     1    15 1   
     2     1    16 1   
     3     1    34 1   
     4     1    35 1   
     5     2    16 1   
     6     2    17 1   
     7     2    36 1   
     8     2    37 1   
     9     3    15 1   
    10     3    17 1   
    11     3    38 1   
    12     3    39 1   
    13     4     5 ar  
    14     4    19 ar  
    15     4    40 1   
    16     5    30 ar  
    17     5    41 1   
    18     6    21 ar  
    19     6    23 ar  
    20     6    28 1   
    21     7    21 ar  
    22     7    22 ar  
    23     7    42 1   
    24     8    22 ar  
    25     8    23 ar  
    26     8    43 1   
    27     9    10 1   
    28     9    44 1   
    29     9    45 1   
    30     9    70 1   
    31    10    11 1   
    32    10    31 1   
    33    10    46 1   
    34    11    12 1   
    35    11    47 1   
    36    11    48 1   
    37    12    28 1   
    38    12    32 2   
    39    13    14 1   
    40    13    18 1   
    41    13    28 1   
    42    13    49 1   
    43    14    29 1   
    44    14    33 2   
    45    15    29 1   
    46    15    50 1   
    47    16    51 1   
    48    16    52 1   
    49    17    53 1   
    50    17    54 1   
    51    18    19 ar  
    52    18    20 ar  
    53    19    55 1   
    54    20    30 ar  
    55    20    56 1   
    56    21    57 1   
    57    22    24 1   
    58    23    58 1   
    59    24    25 1   
    60    24    26 1   
    61    24    27 1   
    62    25    59 1   
    63    25    60 1   
    64    25    61 1   
    65    26    62 1   
    66    26    63 1   
    67    26    64 1   
    68    27    65 1   
    69    27    66 1   
    70    27    67 1   
    71    29    68 1   
    72    31    69 1   
@<TRIPOS>SUBSTRUCTURE
     1 JKL         1 TEMP              0 ****  ****    0 ROOT
