@<TRIPOS>MOLECULE
JKL
   70    72     1     0     0
SMALL
abcg2


@<TRIPOS>ATOM
      1 C13          7.8680     4.1110    23.7790 c6         1 JKL      -0.089400
      2 C15         10.1270     4.9510    24.6170 c6         1 JKL      -0.078400
      3 C17          9.7420     2.4930    24.2030 c6         1 JKL      -0.089400
      4 C20          5.8020     1.7140    17.6990 ca         1 JKL      -0.167000
      5 C21          6.7030     1.2020    16.7790 ca         1 JKL       0.342900
      6 C24          9.0930    -1.2400    21.6980 ca         1 JKL      -0.058000
      7 C26         11.4060    -1.8620    21.4500 ca         1 JKL      -0.100500
      8 C28         10.5710    -1.2550    23.5970 ca         1 JKL      -0.100500
      9 C01          5.5860    -3.6810    23.1160 c3         1 JKL      -0.131100
     10 C02          7.0500    -3.7960    22.7180 c3         1 JKL       0.182300
     11 C04          7.3050    -3.4170    21.2560 c3         1 JKL      -0.154400
     12 C05          6.8950    -1.9990    20.9290 c          1 JKL       0.609100
     13 C08          7.3350     0.3620    20.8800 c3         1 JKL       0.098000
     14 C09          8.3540     1.4000    21.3810 c          1 JKL       0.596100
     15 C12          8.7780     3.0620    23.1490 c6         1 JKL       0.108700
     16 C14          8.6910     5.3300    24.2240 c6         1 JKL      -0.070400
     17 C16         10.1650     3.5560    25.2280 c6         1 JKL      -0.070400
     18 C18          7.0730     0.6380    19.4200 ca         1 JKL      -0.136300
     19 C19          5.9940     1.4240    19.0410 ca         1 JKL      -0.054000
     20 C23          7.9150     0.1790    18.4130 ca         1 JKL       0.376900
     21 C25         10.1500    -1.6470    20.9000 ca         1 JKL      -0.102500
     22 C27         11.6490    -1.6610    22.8070 ca         1 JKL      -0.052300
     23 C29          9.3110    -1.0520    23.0570 ca         1 JKL      -0.102500
     24 C30         13.0230    -1.8560    23.4380 c3         1 JKL      -0.001700
     25 C31         14.0680    -2.3090    22.4190 c3         1 JKL      -0.084100
     26 C32         12.9320    -2.9210    24.5390 c3         1 JKL      -0.084100
     27 C33         13.4890    -0.5270    24.0470 c3         1 JKL      -0.084100
     28 N07          7.8050    -1.0020    21.1360 n          1 JKL      -0.246400
     29 N11          7.9960     2.0200    22.5110 ns         1 JKL      -0.501900
     30 N22          7.7390     0.4460    17.1260 nb         1 JKL      -0.671000
     31 O03          7.5200    -5.1230    22.8440 oh         1 JKL      -0.661000
     32 O06          5.7800    -1.7430    20.5070 o          1 JKL      -0.587100
     33 O10          9.3670     1.6440    20.7490 o          1 JKL      -0.576100
     34 H1           7.0930     4.4150    23.0730 hc         1 JKL       0.044450
     35 H2           7.3520     3.6650    24.6360 hc         1 JKL       0.044450
     36 H3          10.7740     4.9730    23.7350 hc         1 JKL       0.043700
     37 H4          10.5320     5.6900    25.3100 hc         1 JKL       0.043700
     38 H5           9.2590     1.6580    24.7150 hc         1 JKL       0.044450
     39 H6          10.6170     2.0800    23.6950 hc         1 JKL       0.044450
     40 H7           4.9680     2.3190    17.3710 ha         1 JKL       0.122000
     41 H8           6.5830     1.4060    15.7210 h4         1 JKL       0.017100
     42 H9          12.2000    -2.1830    20.7910 ha         1 JKL       0.117000
     43 H10         10.7040    -1.0910    24.6590 ha         1 JKL       0.117000
     44 H12          5.2420    -2.6480    23.0880 hc         1 JKL       0.045367
     45 H13          4.9490    -4.2710    22.4550 hc         1 JKL       0.045367
     46 H14          7.6360    -3.1260    23.3610 h1         1 JKL       0.029700
     47 H15          6.7120    -4.0750    20.6160 hc         1 JKL       0.082700
     48 H16          8.3570    -3.5920    21.0280 hc         1 JKL       0.082700
     49 H17          6.3930     0.5020    21.4180 h1         1 JKL       0.065700
     50 H18          9.3570     3.5440    22.3570 h1         1 JKL       0.082700
     51 H19          8.7160     6.0700    23.4220 hc         1 JKL       0.040700
     52 H20          8.1900     5.8080    25.0680 hc         1 JKL       0.040700
     53 H21          9.4910     3.5300    26.0900 hc         1 JKL       0.040700
     54 H22         11.1600     3.3270    25.6140 hc         1 JKL       0.040700
     55 H23          5.3060     1.8030    19.7880 ha         1 JKL       0.114000
     56 H24          8.7680    -0.4430    18.6550 h4         1 JKL       0.023100
     57 H25          9.9980    -1.8080    19.8400 ha         1 JKL       0.118500
     58 H26          8.4940    -0.7450    23.6980 ha         1 JKL       0.118500
     59 H27         15.0300    -2.4400    22.9160 hc         1 JKL       0.036700
     60 H28         13.8040    -3.2620    21.9580 hc         1 JKL       0.036700
     61 H29         14.2090    -1.5740    21.6240 hc         1 JKL       0.036700
     62 H30         12.2330    -2.6410    25.3280 hc         1 JKL       0.036700
     63 H31         12.6110    -3.8810    24.1310 hc         1 JKL       0.036700
     64 H32         13.9100    -3.0650    25.0030 hc         1 JKL       0.036700
     65 H33         12.8140    -0.1710    24.8260 hc         1 JKL       0.036700
     66 H34         14.4770    -0.6450    24.4970 hc         1 JKL       0.036700
     67 H35         13.5600     0.2500    23.2840 hc         1 JKL       0.036700
     68 H36          7.1680     1.7050    22.9940 hn         1 JKL       0.309500
     69 H37          7.3840    -5.4050    23.7540 ho         1 JKL       0.444000
     70 H11          5.4420    -4.0380    24.1380 hc         1 JKL       0.045367
@<TRIPOS>BOND
     1     1    15 1   
     2     1    16 1   
     3     1    34 1   
     4     1    35 1   
     5     2    16 1   
     6     2    17 1   
     7     2    36 1   
     8     2    37 1   
     9     3    15 1   
    10     3    17 1   
    11     3    38 1   
    12     3    39 1   
    13     4     5 ar  
    14     4    19 ar  
    15     4    40 1   
    16     5    30 ar  
    17     5    41 1   
    18     6    21 ar  
    19     6    23 ar  
    20     6    28 1   
    21     7    21 ar  
    22     7    22 ar  
    23     7    42 1   
    24     8    22 ar  
    25     8    23 ar  
    26     8    43 1   
    27     9    10 1   
    28     9    44 1   
    29     9    45 1   
    30     9    70 1   
    31    10    11 1   
    32    10    31 1   
    33    10    46 1   
    34    11    12 1   
    35    11    47 1   
    36    11    48 1   
    37    12    28 1   
    38    12    32 2   
    39    13    14 1   
    40    13    18 1   
    41    13    28 1   
    42    13    49 1   
    43    14    29 1   
    44    14    33 2   
    45    15    29 1   
    46    15    50 1   
    47    16    51 1   
    48    16    52 1   
    49    17    53 1   
    50    17    54 1   
    51    18    19 ar  
    52    18    20 ar  
    53    19    55 1   
    54    20    30 ar  
    55    20    56 1   
    56    21    57 1   
    57    22    24 1   
    58    23    58 1   
    59    24    25 1   
    60    24    26 1   
    61    24    27 1   
    62    25    59 1   
    63    25    60 1   
    64    25    61 1   
    65    26    62 1   
    66    26    63 1   
    67    26    64 1   
    68    27    65 1   
    69    27    66 1   
    70    27    67 1   
    71    29    68 1   
    72    31    69 1   
@<TRIPOS>SUBSTRUCTURE
     1 JKL         1 TEMP              0 ****  ****    0 ROOT
