@<TRIPOS>MOLECULE
JKN
   37    39     1     0     0
SMALL
bcc


@<TRIPOS>ATOM
      1 C1          -3.2130    -1.5360     0.4690 ca         1 JKN       0.174900
      2 C2          -2.3720    -0.4530     0.1670 ca         1 JKN       0.135400
      3 C3          -4.5790    -1.4360     0.4330 ca         1 JKN      -0.189000
      4 C7          -4.3780     0.8860    -0.2300 ca         1 JKN      -0.121000
      5 C8          -2.1320     1.8870    -0.5150 c          1 JKN       0.719100
      6 C11         -0.2740     0.3870    -0.0600 cc         1 JKN       0.566500
      7 C12          1.1910     0.2550    -0.0060 ca         1 JKN      -0.156900
      8 C13          1.7610    -1.0180    -0.0690 ca         1 JKN      -0.089500
      9 C14          3.1330    -1.1750    -0.0380 ca         1 JKN      -0.127500
     10 C15          3.9870    -0.0750     0.0580 ca         1 JKN      -0.084300
     11 C16          3.4120     1.1890     0.1470 ca         1 JKN      -0.127500
     12 C22          5.9670    -1.2080    -1.0020 c3         1 JKN      -0.100100
     13 C4          -2.9900     0.7540    -0.1820 ca         1 JKN      -0.159600
     14 N5          -1.0180    -0.6210     0.2340 nd         1 JKN      -0.613100
     15 C6          -5.1390    -0.2110     0.0790 ca         1 JKN       0.142900
     16 N9          -0.7900     1.5960    -0.4320 ns         1 JKN      -0.492400
     17 O10         -2.5240     2.9880    -0.8490 o          1 JKN      -0.601500
     18 C17          2.0360     1.3550     0.1120 ca         1 JKN      -0.089500
     19 C18          5.5000    -0.2580     0.1030 c3         1 JKN       0.205100
     20 O19          6.1620     0.9840    -0.0290 oh         1 JKN      -0.592800
     21 F20         -2.6520    -2.6960     0.8020 f          1 JKN      -0.114900
     22 F21         -6.4720    -0.1190     0.0430 f          1 JKN      -0.131900
     23 C23          5.8900    -0.7990     1.4760 c3         1 JKN      -0.100100
     24 H1          -5.2060    -2.2860     0.6710 ha         1 JKN       0.171000
     25 H2          -4.8380     1.8260    -0.5070 ha         1 JKN       0.177000
     26 H3           1.1210    -1.8850    -0.1540 ha         1 JKN       0.146000
     27 H4           3.5360    -2.1790    -0.0960 ha         1 JKN       0.143000
     28 H5           4.0360     2.0650     0.2530 ha         1 JKN       0.143000
     29 H6           5.5660    -2.2140    -0.8790 hc         1 JKN       0.046700
     30 H7           5.6610    -0.8490    -1.9870 hc         1 JKN       0.046700
     31 H8           7.0550    -1.2840    -0.9860 hc         1 JKN       0.046700
     32 H9          -0.1600     2.3430    -0.6960 hn         1 JKN       0.335500
     33 H10          1.6460     2.3610     0.2050 ha         1 JKN       0.146000
     34 H11          6.0370     1.3070    -0.9280 ho         1 JKN       0.405000
     35 H12          6.9680    -0.9590     1.5330 hc         1 JKN       0.046700
     36 H13          5.6030    -0.1030     2.2650 hc         1 JKN       0.046700
     37 H14          5.3980    -1.7500     1.6750 hc         1 JKN       0.046700
@<TRIPOS>BOND
     1     1     2 ar  
     2     1     3 ar  
     3     1    21 1   
     4     2    13 ar  
     5     2    14 1   
     6     3    15 ar  
     7     3    24 1   
     8     4    13 ar  
     9     4    15 ar  
    10     4    25 1   
    11     5    13 1   
    12     5    16 1   
    13     5    17 2   
    14     6     7 1   
    15     6    14 2   
    16     6    16 1   
    17     7     8 ar  
    18     7    18 ar  
    19     8     9 ar  
    20     8    26 1   
    21     9    10 ar  
    22     9    27 1   
    23    10    11 ar  
    24    10    19 1   
    25    11    18 ar  
    26    11    28 1   
    27    12    19 1   
    28    12    29 1   
    29    12    30 1   
    30    12    31 1   
    31    15    22 1   
    32    16    32 1   
    33    18    33 1   
    34    19    20 1   
    35    19    23 1   
    36    20    34 1   
    37    23    35 1   
    38    23    36 1   
    39    23    37 1   
@<TRIPOS>SUBSTRUCTURE
     1 JKN         1 TEMP              0 ****  ****    0 ROOT
