@<TRIPOS>MOLECULE
JKN
   37    39     1     0     0
SMALL
No Charge or Current Charge


@<TRIPOS>ATOM
      1 C1          -3.3530    -1.6010     0.2810 ca         1 JKN       0.210000
      2 C2          -2.4600    -0.5120     0.0950 ca         1 JKN       0.135400
      3 C3          -4.7440    -1.4100     0.2800 ca         1 JKN      -0.171000
      4 C7          -4.4100     0.9650    -0.0940 ca         1 JKN      -0.103000
      5 C8          -2.0850     1.9190    -0.2960 c          1 JKN       0.576600
      6 C11         -0.2940     0.3170    -0.0620 cc         1 JKN       0.566500
      7 C12          1.1730     0.1800    -0.0770 ca         1 JKN      -0.156900
      8 C13          1.7740    -1.0450    -0.4420 ca         1 JKN      -0.071500
      9 C14          3.1710    -1.2030    -0.4270 ca         1 JKN      -0.109500
     10 C15          4.0170    -0.1420    -0.0290 ca         1 JKN      -0.084300
     11 C16          3.4130     1.0710     0.3690 ca         1 JKN      -0.109500
     12 C22          6.1060    -1.5330    -0.6990 c3         1 JKN      -0.100100
     13 C4          -3.0090     0.7760    -0.0930 ca         1 JKN      -0.159600
     14 N5          -1.0670    -0.7580     0.1070 nd         1 JKN      -0.613100
     15 C6          -5.2680    -0.1270     0.0920 ca         1 JKN       0.178000
     16 N9          -0.7780     1.5820    -0.2660 ns         1 JKN      -0.425400
     17 O10         -2.4490     3.0700    -0.4800 o          1 JKN      -0.526000
     18 C17          2.0170     1.2310     0.3520 ca         1 JKN      -0.071500
     19 C18          5.5580    -0.2720     0.0140 c3         1 JKN       0.228300
     20 O19          6.1260     0.8530    -0.6580 oh         1 JKN      -0.655000
     21 F20         -2.8740    -2.8550     0.4640 f          1 JKN      -0.150000
     22 F21         -6.6060     0.0590     0.0910 f          1 JKN      -0.167000
     23 C23          6.0530    -0.2390     1.4770 c3         1 JKN      -0.100100
     24 H1          -5.4100    -2.2560     0.4230 ha         1 JKN       0.153000
     25 H2          -4.8360     1.9550    -0.2400 ha         1 JKN       0.159000
     26 H3           1.1580    -1.8870    -0.7540 ha         1 JKN       0.128000
     27 H4           3.5750    -2.1660    -0.7230 ha         1 JKN       0.125000
     28 H5           4.0310     1.9020     0.7010 ha         1 JKN       0.125000
     29 H6           5.7970    -2.4460    -0.1760 hc         1 JKN       0.046700
     30 H7           5.7500    -1.5870    -1.7350 hc         1 JKN       0.046700
     31 H8           7.2020    -1.5220    -0.7200 hc         1 JKN       0.046700
     32 H9          -0.1260     2.3320    -0.4280 hn         1 JKN       0.335500
     33 H10          1.6030     2.1770     0.6930 ha         1 JKN       0.128000
     34 H11          5.6420     0.9390    -1.5070 ho         1 JKN       0.444000
     35 H12          7.1460    -0.3130     1.5240 hc         1 JKN       0.046700
     36 H13          5.7560     0.6910     1.9760 hc         1 JKN       0.046700
     37 H14          5.6300    -1.0770     2.0440 hc         1 JKN       0.046700
@<TRIPOS>BOND
     1     1     2 ar  
     2     1     3 ar  
     3     1    21 1   
     4     2    13 ar  
     5     2    14 1   
     6     3    15 ar  
     7     3    24 1   
     8     4    13 ar  
     9     4    15 ar  
    10     4    25 1   
    11     5    13 1   
    12     5    16 1   
    13     5    17 2   
    14     6     7 1   
    15     6    14 2   
    16     6    16 1   
    17     7     8 ar  
    18     7    18 ar  
    19     8     9 ar  
    20     8    26 1   
    21     9    10 ar  
    22     9    27 1   
    23    10    11 ar  
    24    10    19 1   
    25    11    18 ar  
    26    11    28 1   
    27    12    19 1   
    28    12    29 1   
    29    12    30 1   
    30    12    31 1   
    31    15    22 1   
    32    16    32 1   
    33    18    33 1   
    34    19    20 1   
    35    19    23 1   
    36    20    34 1   
    37    23    35 1   
    38    23    36 1   
    39    23    37 1   
@<TRIPOS>SUBSTRUCTURE
     1 JKN         1 TEMP              0 ****  ****    0 ROOT
