@<TRIPOS>MOLECULE
JKO
   54    58     1     0     0
SMALL
abcg2


@<TRIPOS>ATOM
      1 C10         42.1130   126.6080    38.5460 cc         1 JKO       0.129400
      2 C11         39.0610   128.3620    38.7680 cc         1 JKO      -0.118000
      3 C15         33.8570   132.4520    38.6000 cc         1 JKO       0.259900
      4 C16         38.8610   129.6900    38.4950 cd         1 JKO       0.074600
      5 C18         41.1960   129.9520    37.9150 cc         1 JKO      -0.090000
      6 C19         39.9640   130.4880    38.0560 cd         1 JKO      -0.173000
      7 C21         42.9330   125.4030    38.6780 ca         1 JKO      -0.018800
      8 C22         33.8900   129.5520    40.5260 c3         1 JKO       0.068900
      9 C23         44.3190   125.4450    38.5050 ca         1 JKO      -0.089000
     10 C24         42.3370   124.1800    38.9880 ca         1 JKO      -0.089000
     11 C25         45.0840   124.2970    38.6340 ca         1 JKO      -0.117500
     12 C26         43.1040   123.0310    39.1180 ca         1 JKO      -0.117500
     13 C27         44.4800   123.0840    38.9410 ca         1 JKO      -0.106000
     14 C28         36.4260   134.1890    35.3820 c6         1 JKO       0.057000
     15 C1          36.0740   132.7740    37.3300 c          1 JKO       0.663700
     16 O2          37.2420   132.9340    37.6990 o          1 JKO      -0.644100
     17 N3          35.6020   133.3050    36.1940 n          1 JKO      -0.389800
     18 C4          35.3340   130.8430    38.8920 cd         1 JKO      -0.160600
     19 C5          35.1300   132.0280    38.1920 cc         1 JKO      -0.255600
     20 C6          40.3540   127.8210    38.6150 cd         1 JKO      -0.054000
     21 N7          40.7820   126.5940    38.8270 nc         1 JKO      -0.294600
     22 C8          36.4350   129.8440    38.8810 c          1 JKO       0.633700
     23 N9          41.3890   128.6350    38.1960 na         1 JKO       0.120100
     24 N12         34.2170   130.6410    39.6240 na         1 JKO       0.179800
     25 N13         33.3310   131.6120    39.4660 nd         1 JKO      -0.507800
     26 C14         42.5180   127.8610    38.1480 cd         1 JKO      -0.275100
     27 N17         37.6530   130.3670    38.6210 ns         1 JKO      -0.394100
     28 O20         36.2140   128.6660    39.0980 o          1 JKO      -0.583100
     29 C29         36.6550   133.5740    34.0130 c6         1 JKO       0.131600
     30 O30         35.4350   133.2710    33.3760 os         1 JKO      -0.440000
     31 C31         34.3560   132.9460    35.5320 c6         1 JKO       0.057000
     32 C32         34.6600   132.3870    34.1500 c6         1 JKO       0.131600
     33 H33         38.2770   127.7060    39.1060 ha         1 JKO       0.172000
     34 H35         33.3250   133.3450    38.3060 h4         1 JKO       0.047100
     35 H37         42.0560   130.5170    37.5860 h4         1 JKO       0.145000
     36 H38         39.8240   131.5350    37.8260 ha         1 JKO       0.143000
     37 H40         33.0350   129.8750    41.1110 h1         1 JKO       0.072033
     38 H39         33.6300   128.6530    39.9740 h1         1 JKO       0.072033
     39 H41         34.7190   129.3400    41.1940 h1         1 JKO       0.072033
     40 H42         44.8120   126.3810    38.2730 ha         1 JKO       0.120500
     41 H43         41.2650   124.1300    39.1270 ha         1 JKO       0.120500
     42 H44         46.1560   124.3510    38.4970 ha         1 JKO       0.110500
     43 H45         42.6230   122.0920    39.3580 ha         1 JKO       0.110500
     44 H46         45.0790   122.1880    39.0430 ha         1 JKO       0.110000
     45 H48         37.3760   134.3760    35.8750 h1         1 JKO       0.069700
     46 H34         43.4680   128.2620    37.8400 h4         1 JKO       0.230000
     47 H36         37.6850   131.3760    38.4500 hn         1 JKO       0.373500
     48 H49         37.1900   134.2810    33.3770 h1         1 JKO       0.057700
     49 H50         37.2760   132.6730    34.1150 h1         1 JKO       0.057700
     50 H52         33.8190   132.1900    36.0990 h1         1 JKO       0.069700
     51 H51         33.7190   133.8310    35.4590 h1         1 JKO       0.069700
     52 H53         33.7230   132.2170    33.6170 h1         1 JKO       0.057700
     53 H54         35.1680   131.4190    34.2610 h1         1 JKO       0.057700
     54 H47         35.9040   135.1450    35.2810 h1         1 JKO       0.069700
@<TRIPOS>BOND
     1     1     7 1   
     2     1    21 1   
     3     1    26 2   
     4     2     4 2   
     5     2    20 1   
     6     2    33 1   
     7     3    19 1   
     8     3    25 2   
     9     3    34 1   
    10     4     6 1   
    11     4    27 1   
    12     5     6 2   
    13     5    23 1   
    14     5    35 1   
    15     6    36 1   
    16     7     9 ar  
    17     7    10 ar  
    18     8    24 1   
    19     8    37 1   
    20     8    38 1   
    21     8    39 1   
    22     9    11 ar  
    23     9    40 1   
    24    10    12 ar  
    25    10    41 1   
    26    11    13 ar  
    27    11    42 1   
    28    12    13 ar  
    29    12    43 1   
    30    13    44 1   
    31    14    17 1   
    32    14    29 1   
    33    14    45 1   
    34    14    54 1   
    35    15    16 2   
    36    15    17 1   
    37    15    19 1   
    38    17    31 1   
    39    18    19 2   
    40    18    22 1   
    41    18    24 1   
    42    20    21 2   
    43    20    23 1   
    44    22    27 1   
    45    22    28 2   
    46    23    26 1   
    47    24    25 1   
    48    26    46 1   
    49    27    47 1   
    50    29    30 1   
    51    29    48 1   
    52    29    49 1   
    53    30    32 1   
    54    31    32 1   
    55    31    50 1   
    56    31    51 1   
    57    32    52 1   
    58    32    53 1   
@<TRIPOS>SUBSTRUCTURE
     1 JKO         1 TEMP              0 ****  ****    0 ROOT
