@<TRIPOS>MOLECULE
JKO
   54    58     1     0     0
SMALL
No Charge or Current Charge


@<TRIPOS>ATOM
      1 C10         42.0920   126.3930    38.6150 cc         1 JKO       0.129400
      2 C11         39.1250   128.1910    38.8580 cc         1 JKO      -0.118000
      3 C15         33.8290   132.3050    38.3980 cc         1 JKO       0.259900
      4 C16         38.8340   129.4240    38.3020 cd         1 JKO       0.074600
      5 C18         41.1100   129.5080    37.2960 cc         1 JKO      -0.090000
      6 C19         39.8540   130.0700    37.5090 cd         1 JKO      -0.173000
      7 C21         43.0320   125.2770    38.8140 ca         1 JKO      -0.018800
      8 C22         33.6940   129.5880    40.6030 c3         1 JKO       0.068900
      9 C23         44.4140   125.4190    38.5490 ca         1 JKO      -0.089000
     10 C24         42.5690   124.0460    39.3310 ca         1 JKO      -0.089000
     11 C25         45.3000   124.3500    38.7700 ca         1 JKO      -0.117500
     12 C26         43.4560   122.9780    39.5520 ca         1 JKO      -0.117500
     13 C27         44.8220   123.1280    39.2680 ca         1 JKO      -0.106000
     14 C28         36.3310   134.5430    35.6290 c6         1 JKO       0.057000
     15 C1          36.0830   132.6280    37.2730 c          1 JKO       0.663700
     16 O2          37.2970   132.5580    37.3880 o          1 JKO      -0.644100
     17 N3          35.5180   133.4750    36.2890 n          1 JKO      -0.389800
     18 C4          35.3330   130.7660    38.9840 cd         1 JKO      -0.160600
     19 C5          35.1450   131.8760    38.1590 cc         1 JKO      -0.255600
     20 C6          40.3480   127.5900    38.6820 cd         1 JKO      -0.054000
     21 N7          40.8170   126.4380    39.1150 nc         1 JKO      -0.294600
     22 C8          36.5070   129.8390    39.1840 c          1 JKO       0.633700
     23 N9          41.2750   128.2740    37.9190 na         1 JKO       0.120100
     24 N12         34.0830   130.6180    39.6260 na         1 JKO       0.179800
     25 N13         33.1590   131.5780    39.2570 nd         1 JKO      -0.507800
     26 C14         42.4160   127.5020    37.8640 cd         1 JKO      -0.275100
     27 N17         37.6250   130.1010    38.4240 ns         1 JKO      -0.394100
     28 O20         36.4590   128.9030    39.9680 o          1 JKO      -0.583100
     29 C29         36.5860   134.2360    34.1330 c6         1 JKO       0.131600
     30 O30         35.3280   134.0090    33.4630 os         1 JKO      -0.440000
     31 C31         34.2830   133.1260    35.5130 c6         1 JKO       0.057000
     32 C32         34.5910   132.8930    34.0080 c6         1 JKO       0.131600
     33 H33         38.3920   127.6520    39.4440 ha         1 JKO       0.172000
     34 H35         33.3320   133.1720    37.9850 h4         1 JKO       0.047100
     35 H37         41.9260   129.9240    36.7200 h4         1 JKO       0.145000
     36 H38         39.6430   131.0350    37.0590 ha         1 JKO       0.143000
     37 H40         32.6560   129.7450    40.9220 h1         1 JKO       0.072033
     38 H39         33.7810   128.5960    40.1450 h1         1 JKO       0.072033
     39 H41         34.3500   129.6470    41.4790 h1         1 JKO       0.072033
     40 H42         44.8150   126.3580    38.1770 ha         1 JKO       0.120500
     41 H43         41.5140   123.9100    39.5590 ha         1 JKO       0.120500
     42 H44         46.3600   124.4720    38.5590 ha         1 JKO       0.110500
     43 H45         43.0830   122.0350    39.9440 ha         1 JKO       0.110500
     44 H46         45.5090   122.3020    39.4400 ha         1 JKO       0.110000
     45 H48         37.2940   134.6780    36.1420 h1         1 JKO       0.069700
     46 H34         43.3070   127.7840    37.3180 h4         1 JKO       0.230000
     47 H36         37.5360   130.9640    37.9030 hn         1 JKO       0.373500
     48 H49         37.1020   135.0820    33.6580 h1         1 JKO       0.057700
     49 H50         37.2220   133.3440    34.0320 h1         1 JKO       0.057700
     50 H52         33.8200   132.2060    35.8930 h1         1 JKO       0.069700
     51 H51         33.5490   133.9380    35.6140 h1         1 JKO       0.069700
     52 H53         33.6530   132.7720    33.4480 h1         1 JKO       0.057700
     53 H54         35.1830   131.9750    33.8850 h1         1 JKO       0.057700
     54 H47         35.7930   135.4970    35.7100 h1         1 JKO       0.069700
@<TRIPOS>BOND
     1     1     7 1   
     2     1    21 1   
     3     1    26 2   
     4     2     4 2   
     5     2    20 1   
     6     2    33 1   
     7     3    19 1   
     8     3    25 2   
     9     3    34 1   
    10     4     6 1   
    11     4    27 1   
    12     5     6 2   
    13     5    23 1   
    14     5    35 1   
    15     6    36 1   
    16     7     9 ar  
    17     7    10 ar  
    18     8    24 1   
    19     8    37 1   
    20     8    38 1   
    21     8    39 1   
    22     9    11 ar  
    23     9    40 1   
    24    10    12 ar  
    25    10    41 1   
    26    11    13 ar  
    27    11    42 1   
    28    12    13 ar  
    29    12    43 1   
    30    13    44 1   
    31    14    17 1   
    32    14    29 1   
    33    14    45 1   
    34    14    54 1   
    35    15    16 2   
    36    15    17 1   
    37    15    19 1   
    38    17    31 1   
    39    18    19 2   
    40    18    22 1   
    41    18    24 1   
    42    20    21 2   
    43    20    23 1   
    44    22    27 1   
    45    22    28 2   
    46    23    26 1   
    47    24    25 1   
    48    26    46 1   
    49    27    47 1   
    50    29    30 1   
    51    29    48 1   
    52    29    49 1   
    53    30    32 1   
    54    31    32 1   
    55    31    50 1   
    56    31    51 1   
    57    32    52 1   
    58    32    53 1   
@<TRIPOS>SUBSTRUCTURE
     1 JKO         1 TEMP              0 ****  ****    0 ROOT
