@<TRIPOS>MOLECULE
JKP
   13    13     1     0     0
SMALL
No Charge or Current Charge


@<TRIPOS>ATOM
      1 O01         -3.4240    -0.8810     0.0300 o          1 JKP      -0.701000
      2 C02         -2.7750     0.1570     0.0210 c          1 JKP       0.719600
      3 O03         -3.2880     1.2670     0.0210 o          1 JKP      -0.701000
      4 C04         -1.2620     0.0610     0.0090 ca         1 JKP      -0.105600
      5 C05         -0.5960    -1.1870     0.0080 ca         1 JKP      -0.117000
      6 C06          0.8080    -1.2220    -0.0040 ca         1 JKP       0.422000
      7 Cl07         1.6580    -2.7600    -0.0050 cl         1 JKP      -0.220000
      8 N08          1.5850    -0.1190    -0.0140 nb         1 JKP      -0.694000
      9 C09          0.9530     1.0740    -0.0130 ca         1 JKP       0.422000
     10 Cl10         1.9900     2.4920    -0.0270 cl         1 JKP      -0.220000
     11 C11         -0.4450     1.2150    -0.0020 ca         1 JKP      -0.117000
     12 H051        -1.1520    -2.1200     0.0160 ha         1 JKP       0.155500
     13 H111        -0.8780     2.2110    -0.0020 ha         1 JKP       0.155500
@<TRIPOS>BOND
     1     1     2 1   
     2     2     3 1   
     3     2     4 1   
     4     4     5 ar  
     5     4    11 ar  
     6     5     6 ar  
     7     5    12 1   
     8     6     7 1   
     9     6     8 ar  
    10     8     9 ar  
    11     9    10 1   
    12     9    11 ar  
    13    11    13 1   
@<TRIPOS>SUBSTRUCTURE
     1 JKP         1 TEMP              0 ****  ****    0 ROOT
