@<TRIPOS>MOLECULE
JKP
   13    13     1     0     0
SMALL
bcc


@<TRIPOS>ATOM
      1 O01         -3.3640    -0.9280     0.0320 o          1 JKP      -0.806300
      2 C02         -2.7570     0.1540     0.0210 c          1 JKP       0.930200
      3 O03         -3.2270     1.3030     0.0190 o          1 JKP      -0.806300
      4 C04         -1.2260     0.0600     0.0080 ca         1 JKP      -0.105600
      5 C05         -0.5930    -1.1770     0.0080 ca         1 JKP      -0.200300
      6 C06          0.7900    -1.1900    -0.0040 ca         1 JKP       0.487300
      7 CL07         1.6220    -2.7110    -0.0050 cl         1 JKP      -0.220000
      8 N08          1.5480    -0.1160    -0.0140 nb         1 JKP      -0.694000
      9 C09          0.9310     1.0440    -0.0130 ca         1 JKP       0.487300
     10 CL10         1.9490     2.4470    -0.0250 cl         1 JKP      -0.220000
     11 C11         -0.4420     1.2060    -0.0020 ca         1 JKP      -0.200300
     12 H051        -1.1650    -2.0930     0.0150 ha         1 JKP       0.173500
     13 H111        -0.8910     2.1890    -0.0020 ha         1 JKP       0.173500
@<TRIPOS>BOND
     1     1     2 1   
     2     2     3 1   
     3     2     4 1   
     4     4     5 ar  
     5     4    11 ar  
     6     5     6 ar  
     7     5    12 1   
     8     6     7 1   
     9     6     8 ar  
    10     8     9 ar  
    11     9    10 1   
    12     9    11 ar  
    13    11    13 1   
@<TRIPOS>SUBSTRUCTURE
     1 JKP         1 TEMP              0 ****  ****    0 ROOT
