@<TRIPOS>MOLECULE
JKQ
   43    46     1     0     0
SMALL
abcg2


@<TRIPOS>ATOM
      1 N1          -3.9570     1.1710    -0.3950 nb         1 JKQ      -0.247000
      2 N3           0.1010     1.8210    -0.2010 nu         1 JKQ      -0.850100
      3 C4          -1.1080    -1.0350     0.1280 cc         1 JKQ       0.046600
      4 C5          -1.7300     0.2400    -0.1210 ca         1 JKQ      -0.252800
      5 C6          -3.1160     0.1590    -0.1720 ca         1 JKQ       0.188300
      6 C7          -3.3430     2.3240    -0.5740 ca         1 JKQ       0.172900
      7 C8          -1.1980     1.5540    -0.2910 ca         1 JKQ       0.429900
      8 C10          0.7840     3.5830    -1.7830 c3         1 JKQ      -0.077100
      9 C13          1.1210    -1.1870    -0.9520 ca         1 JKQ      -0.039000
     10 C15          3.0740    -1.7040     0.3830 ca         1 JKQ      -0.024200
     11 C17          3.5620    -1.4050    -1.8250 cc         1 JKQ      -0.228200
     12 C1          -2.1590    -3.8940     1.9630 c3         1 JKQ      -0.085100
     13 O1           2.6810     4.2150     0.3550 o          1 JKQ      -0.718500
     14 S1          -3.6580    -1.4590     0.1040 ss         1 JKQ      -0.193900
     15 C2          -1.7820    -3.4820     0.5410 c3         1 JKQ      -0.003200
     16 N2          -2.0410     2.5670    -0.5340 nb         1 JKQ      -0.296000
     17 O2           2.5030     2.0280     0.7650 o          1 JKQ      -0.718500
     18 C3          -2.0220    -2.0330     0.2700 cd         1 JKQ      -0.096600
     19 N4           4.4130    -1.8700     0.1880 na         1 JKQ      -0.222700
     20 C9           0.6890     3.1360    -0.3260 c3         1 JKQ       0.069500
     21 C11          2.0900     3.1200     0.3330 c          1 JKQ       0.715000
     22 C12          0.3510    -1.2660     0.1980 ca         1 JKQ      -0.081800
     23 C14          2.4980    -1.4050    -0.8720 ca         1 JKQ      -0.089800
     24 C16          4.7040    -1.6910    -1.1350 cd         1 JKQ      -0.173100
     25 C18          2.3110    -1.7940     1.5440 ca         1 JKQ      -0.121000
     26 C19          0.9540    -1.5710     1.4350 ca         1 JKQ      -0.067000
     27 H1           0.7610     1.0990     0.0600 hn         1 JKQ       0.540000
     28 H2          -3.9780     3.1810    -0.7740 h5         1 JKQ       0.026100
     29 H3          -0.2000     3.6030    -2.2500 hc         1 JKQ       0.027367
     30 H4           1.2080     4.5840    -1.8460 hc         1 JKQ       0.027367
     31 H5           1.4210     2.9050    -2.3560 hc         1 JKQ       0.027367
     32 H6           0.6560    -0.9550    -1.9030 ha         1 JKQ       0.117000
     33 H7           3.4900    -1.2170    -2.8850 ha         1 JKQ       0.198000
     34 H8          -1.5850    -3.3300     2.6990 hc         1 JKQ       0.030367
     35 H9          -3.2170    -3.7230     2.1610 hc         1 JKQ       0.030367
     36 H10         -1.9590    -4.9540     2.1190 hc         1 JKQ       0.030367
     37 H12         -0.7260    -3.6930     0.3610 hc         1 JKQ       0.047200
     38 H13         -2.3430    -4.0880    -0.1750 hc         1 JKQ       0.047200
     39 H14          5.0880    -2.0910     0.9010 hn         1 JKQ       0.341000
     40 H15          0.0680     3.8570     0.2160 h1         1 JKQ       0.061700
     41 H16          5.7190    -1.7820    -1.4870 h4         1 JKQ       0.199000
     42 H17          2.7600    -2.0290     2.5010 ha         1 JKQ       0.106000
     43 H18          0.3310    -1.6260     2.3200 ha         1 JKQ       0.110000
@<TRIPOS>BOND
     1     1     5 ar  
     2     1     6 ar  
     3     2     7 1   
     4     2    20 1   
     5     2    27 1   
     6     3     4 1   
     7     3    18 2   
     8     3    22 1   
     9     4     5 ar  
    10     4     7 ar  
    11     5    14 1   
    12     6    16 ar  
    13     6    28 1   
    14     7    16 ar  
    15     8    20 1   
    16     8    29 1   
    17     8    30 1   
    18     8    31 1   
    19     9    22 ar  
    20     9    23 ar  
    21     9    32 1   
    22    10    19 1   
    23    10    23 ar  
    24    10    25 ar  
    25    11    23 1   
    26    11    24 2   
    27    11    33 1   
    28    12    15 1   
    29    12    34 1   
    30    12    35 1   
    31    12    36 1   
    32    13    21 1   
    33    14    18 1   
    34    15    18 1   
    35    15    37 1   
    36    15    38 1   
    37    17    21 1   
    38    19    24 1   
    39    19    39 1   
    40    20    21 1   
    41    20    40 1   
    42    22    26 ar  
    43    24    41 1   
    44    25    26 ar  
    45    25    42 1   
    46    26    43 1   
@<TRIPOS>SUBSTRUCTURE
     1 JKQ         1 TEMP              0 ****  ****    0 ROOT
