@<TRIPOS>MOLECULE
JKQ
   43    46     1     0     0
SMALL
No Charge or Current Charge


@<TRIPOS>ATOM
      1 N1          -4.0480     1.1980    -0.4060 nb         1 JKQ      -0.247000
      2 N3           0.0310     1.8710     0.0230 nu         1 JKQ      -0.850100
      3 C4          -1.1780    -0.9340     0.2180 cc         1 JKQ       0.046600
      4 C5          -1.8540     0.3210    -0.0310 ca         1 JKQ      -0.252800
      5 C6          -3.2190     0.1690    -0.1590 ca         1 JKQ       0.188300
      6 C7          -3.4510     2.4050    -0.5200 ca         1 JKQ       0.172900
      7 C8          -1.3230     1.6160    -0.1460 ca         1 JKQ       0.429900
      8 C10          1.0730     3.0600    -1.8900 c3         1 JKQ      -0.077100
      9 C13          1.0330    -1.0370    -0.9080 ca         1 JKQ      -0.039000
     10 C15          3.0150    -1.6260     0.3530 ca         1 JKQ      -0.024200
     11 C17          3.4260    -1.2320    -1.8240 cc         1 JKQ      -0.228200
     12 C1          -2.0120    -3.9720     1.8810 c3         1 JKQ      -0.085100
     13 O1           2.4720     4.4340     0.7350 o          1 JKQ      -0.718500
     14 S1          -3.7660    -1.5050     0.0480 ss         1 JKQ      -0.193900
     15 C2          -1.7420    -3.4710     0.4490 c3         1 JKQ      -0.003200
     16 N2          -2.1300     2.6670    -0.3980 nb         1 JKQ      -0.296000
     17 O2           2.7390     2.3010     0.8350 o          1 JKQ      -0.718500
     18 C3          -2.0620    -2.0040     0.2780 cd         1 JKQ      -0.096600
     19 N4           4.3760    -1.8110     0.1690 na         1 JKQ      -0.222700
     20 C9           0.7970     3.0950    -0.3710 c3         1 JKQ       0.069500
     21 C11          2.1390     3.2930     0.4390 c          1 JKQ       0.715000
     22 C12          0.2610    -1.1650     0.2690 ca         1 JKQ      -0.081800
     23 C14          2.4090    -1.2780    -0.8200 ca         1 JKQ      -0.089800
     24 C16          4.6260    -1.5610    -1.2040 cd         1 JKQ      -0.173100
     25 C18          2.2790    -1.7590     1.5390 ca         1 JKQ      -0.121000
     26 C19          0.8880    -1.5240     1.4890 ca         1 JKQ      -0.067000
     27 H1           0.5880     1.0550     0.2880 hn         1 JKQ       0.540000
     28 H2          -4.1010     3.2540    -0.7230 h5         1 JKQ       0.026100
     29 H3           0.1360     3.0010    -2.4570 hc         1 JKQ       0.027367
     30 H4           1.6020     3.9680    -2.2030 hc         1 JKQ       0.027367
     31 H5           1.6920     2.1940    -2.1530 hc         1 JKQ       0.027367
     32 H6           0.5720    -0.7650    -1.8540 ha         1 JKQ       0.117000
     33 H7           3.3020    -0.9860    -2.8770 ha         1 JKQ       0.198000
     34 H8          -1.4010    -3.4210     2.6060 hc         1 JKQ       0.030367
     35 H9          -3.0670    -3.8380     2.1450 hc         1 JKQ       0.030367
     36 H10         -1.7680    -5.0370     1.9650 hc         1 JKQ       0.030367
     37 H12         -0.6960    -3.6760     0.1910 hc         1 JKQ       0.047200
     38 H13         -2.3460    -4.0630    -0.2490 hc         1 JKQ       0.047200
     39 H14          5.0560    -2.0700     0.8780 hn         1 JKQ       0.341000
     40 H15          0.1900     3.9840    -0.1530 h1         1 JKQ       0.061700
     41 H16          5.6240    -1.6340    -1.6290 h4         1 JKQ       0.199000
     42 H17          2.7640    -2.0350     2.4720 ha         1 JKQ       0.106000
     43 H18          0.2940    -1.6180     2.3950 ha         1 JKQ       0.110000
@<TRIPOS>BOND
     1     1     5 ar  
     2     1     6 ar  
     3     2     7 1   
     4     2    20 1   
     5     2    27 1   
     6     3     4 1   
     7     3    18 2   
     8     3    22 1   
     9     4     5 ar  
    10     4     7 ar  
    11     5    14 1   
    12     6    16 ar  
    13     6    28 1   
    14     7    16 ar  
    15     8    20 1   
    16     8    29 1   
    17     8    30 1   
    18     8    31 1   
    19     9    22 ar  
    20     9    23 ar  
    21     9    32 1   
    22    10    19 1   
    23    10    23 ar  
    24    10    25 ar  
    25    11    23 1   
    26    11    24 2   
    27    11    33 1   
    28    12    15 1   
    29    12    34 1   
    30    12    35 1   
    31    12    36 1   
    32    13    21 1   
    33    14    18 1   
    34    15    18 1   
    35    15    37 1   
    36    15    38 1   
    37    17    21 1   
    38    19    24 1   
    39    19    39 1   
    40    20    21 1   
    41    20    40 1   
    42    22    26 ar  
    43    24    41 1   
    44    25    26 ar  
    45    25    42 1   
    46    26    43 1   
@<TRIPOS>SUBSTRUCTURE
     1 JKQ         1 TEMP              0 ****  ****    0 ROOT
