@<TRIPOS>MOLECULE
JKS
   24    25     1     0     0
SMALL
No Charge or Current Charge


@<TRIPOS>ATOM
      1 C10         -2.4380     1.2470     0.1880 c5         1 JKS       0.222300
      2 C13         -2.4980    -1.2230     0.1890 c5         1 JKS       0.222300
      3 N01          5.1820     0.0100    -0.3190 n1         1 JKS      -0.459000
      4 C03          2.5730    -0.0200    -0.1380 ca         1 JKS       0.342000
      5 C04          1.8990    -1.2330     0.1160 ca         1 JKS      -0.059000
      6 C05          0.4930    -1.2430     0.2130 ca         1 JKS      -0.189000
      7 C06         -0.2150    -0.0340     0.0520 ca         1 JKS       0.326000
      8 C07          0.5570     1.1370    -0.2000 ca         1 JKS       0.250900
      9 N08          1.9130     1.1570    -0.2950 nb         1 JKS      -0.595000
     10 N09         -1.6390    -0.0080     0.1450 nh         1 JKS      -0.821400
     11 C11         -3.8190     0.7200     0.6520 c5         1 JKS      -0.093400
     12 C12         -3.8970    -0.6280    -0.1060 c5         1 JKS      -0.093400
     13 H102        -2.0340     1.9850     0.8960 h1         1 JKS       0.050200
     14 H101        -2.5000     1.7110    -0.8060 h1         1 JKS       0.050200
     15 H131        -2.2160    -1.9710    -0.5660 h1         1 JKS       0.050200
     16 H132        -2.4650    -1.6950     1.1810 h1         1 JKS       0.050200
     17 H041         2.4630    -2.1550     0.2380 ha         1 JKS       0.129000
     18 H051        -0.0230    -2.1760     0.4150 ha         1 JKS       0.122000
     19 H071         0.0710     2.1020    -0.3360 h4         1 JKS       0.022100
     20 H111        -3.8430     0.5710     1.7380 hc         1 JKS       0.058200
     21 H112        -4.6340     1.4050     0.3940 hc         1 JKS       0.058200
     22 H122        -4.0440    -0.4740    -1.1820 hc         1 JKS       0.058200
     23 H121        -4.7080    -1.2720     0.2500 hc         1 JKS       0.058200
     24 C02          4.0150     0.0030    -0.2390 cg         1 JKS       0.239000
@<TRIPOS>BOND
     1     1    10 1   
     2     1    11 1   
     3     1    13 1   
     4     1    14 1   
     5     2    10 1   
     6     2    12 1   
     7     2    15 1   
     8     2    16 1   
     9     3    24 3   
    10     4     5 ar  
    11     4     9 ar  
    12     4    24 1   
    13     5     6 ar  
    14     5    17 1   
    15     6     7 ar  
    16     6    18 1   
    17     7     8 ar  
    18     7    10 1   
    19     8     9 ar  
    20     8    19 1   
    21    11    12 1   
    22    11    20 1   
    23    11    21 1   
    24    12    22 1   
    25    12    23 1   
@<TRIPOS>SUBSTRUCTURE
     1 JKS         1 TEMP              0 ****  ****    0 ROOT
