@<TRIPOS>MOLECULE
JKS
   24    25     1     0     0
SMALL
abcg2


@<TRIPOS>ATOM
      1 C10         -2.3730     1.2230     0.1510 c5         1 JKS       0.222300
      2 C13         -2.4420    -1.1980     0.2050 c5         1 JKS       0.222300
      3 N01          5.0520     0.0870    -0.2530 n1         1 JKS      -0.459000
      4 C03          2.4770    -0.0260    -0.1040 ca         1 JKS       0.342000
      5 C04          1.8270    -1.2480     0.0430 ca         1 JKS      -0.059000
      6 C05          0.4530    -1.2680     0.1200 ca         1 JKS      -0.189000
      7 C06         -0.2640    -0.0590     0.0480 ca         1 JKS       0.326000
      8 C07          0.5100     1.1230    -0.1060 ca         1 JKS       0.250900
      9 N08          1.8190     1.1330    -0.1770 nb         1 JKS      -0.595000
     10 N09         -1.6020    -0.0130     0.1180 nh         1 JKS      -0.821400
     11 C11         -3.7650     0.7600     0.5650 c5         1 JKS      -0.093400
     12 C12         -3.8490    -0.6500    -0.0080 c5         1 JKS      -0.093400
     13 H102        -1.9470     1.9380     0.8580 h1         1 JKS       0.050200
     14 H101        -2.3880     1.7000    -0.8360 h1         1 JKS       0.050200
     15 H131        -2.1680    -1.9360    -0.5530 h1         1 JKS       0.050200
     16 H132        -2.3420    -1.6760     1.1860 h1         1 JKS       0.050200
     17 H041         2.3940    -2.1670     0.1000 ha         1 JKS       0.129000
     18 H051        -0.0590    -2.2120     0.2450 ha         1 JKS       0.122000
     19 H071         0.0220     2.0880    -0.1790 h4         1 JKS       0.022100
     20 H111        -3.8420     0.7330     1.6540 hc         1 JKS       0.058200
     21 H112        -4.5430     1.4240     0.1910 hc         1 JKS       0.058200
     22 H122        -4.0760    -0.6130    -1.0750 hc         1 JKS       0.058200
     23 H121        -4.6050    -1.2670     0.4740 hc         1 JKS       0.058200
     24 C02          3.9010     0.0410    -0.1870 cg         1 JKS       0.239000
@<TRIPOS>BOND
     1     1    10 1   
     2     1    11 1   
     3     1    13 1   
     4     1    14 1   
     5     2    10 1   
     6     2    12 1   
     7     2    15 1   
     8     2    16 1   
     9     3    24 3   
    10     4     5 ar  
    11     4     9 ar  
    12     4    24 1   
    13     5     6 ar  
    14     5    17 1   
    15     6     7 ar  
    16     6    18 1   
    17     7     8 ar  
    18     7    10 1   
    19     8     9 ar  
    20     8    19 1   
    21    11    12 1   
    22    11    20 1   
    23    11    21 1   
    24    12    22 1   
    25    12    23 1   
@<TRIPOS>SUBSTRUCTURE
     1 JKS         1 TEMP              0 ****  ****    0 ROOT
