@<TRIPOS>MOLECULE
JKT
   81    84     1     0     0
SMALL
abcg2


@<TRIPOS>ATOM
      1 C14         -3.8500    -1.4560     0.8440 c3         1 JKT      -0.154400
      2 C15         -5.3270    -1.4540     0.4830 c3         1 JKT      -0.063400
      3 C16         -5.8130    -2.8620     0.1370 c3         1 JKT      -0.033100
      4 C17         -7.2680    -2.8790    -0.2380 ca         1 JKT      -0.078300
      5 C18         -7.6670    -2.6800    -1.5580 ca         1 JKT      -0.106000
      6 C22         -8.2530    -3.0480     0.7330 ca         1 JKT      -0.106000
      7 C19         -9.0120    -2.6520    -1.9010 ca         1 JKT      -0.109000
      8 C21         -9.6000    -3.0210     0.3960 ca         1 JKT      -0.109000
      9 C20         -9.9850    -2.8230    -0.9230 ca         1 JKT      -0.111000
     10 C12         -3.2980    -0.0820     1.1460 c          1 JKT       0.619100
     11 O13         -3.9800     0.9300     1.0990 o          1 JKT      -0.590100
     12 N11         -1.9900    -0.0310     1.4860 n          1 JKT      -0.402800
     13 C23         -1.0690    -1.1470     1.4070 c5         1 JKT       0.091000
     14 C10         -1.3190     1.2370     1.6180 c5         1 JKT       0.027700
     15 C8          -1.1090     1.8740     0.2380 c          1 JKT       0.601100
     16 O9          -1.3210     1.2210    -0.7750 o          1 JKT      -0.595100
     17 C25          0.0010     0.8730     2.3100 c5         1 JKT      -0.095400
     18 C24          0.2450    -0.6150     2.0020 c5         1 JKT       0.079300
     19 N26          1.3760    -0.8510     1.1250 na         1 JKT       0.114800
     20 N27          2.4380    -1.4970     1.5790 nc         1 JKT      -0.213800
     21 N28          3.3070    -1.5530     0.6320 nd         1 JKT      -0.335000
     22 C30          1.5610    -0.4670    -0.1510 cc         1 JKT      -0.186000
     23 C29          2.8130    -0.9290    -0.4600 cd         1 JKT       0.146300
     24 C31          3.5710    -0.8080    -1.7420 c3         1 JKT       0.099700
     25 N32          4.9180    -0.3320    -1.5560 ns         1 JKT      -0.494900
     26 O34          5.9150    -2.3710    -1.6110 o          1 JKT      -0.535000
     27 C33          5.9650    -1.1760    -1.4080 c          1 JKT       0.655100
     28 O35          7.0480    -0.4930    -1.0390 os         1 JKT      -0.483100
     29 C36          8.3480    -1.1180    -0.8690 c3         1 JKT       0.226000
     30 C39          8.8540    -1.6840    -2.1890 c3         1 JKT      -0.108100
     31 C37          9.2330     0.0440    -0.4320 c3         1 JKT      -0.108100
     32 C38          8.3140    -2.1780     0.2250 c3         1 JKT      -0.108100
     33 N7          -0.6650     3.1400     0.2180 n          1 JKT      -0.401800
     34 C3          -0.4400     3.8740    -1.0230 c5         1 JKT       0.115700
     35 C1           1.0180     3.7830    -1.4850 c3         1 JKT       0.374500
     36 N2           1.1600     4.5290    -2.7010 n8         1 JKT      -1.038200
     37 C4          -0.8120     5.3320    -0.6750 c5         1 JKT      -0.082400
     38 C5          -1.2610     5.3060     0.7890 c5         1 JKT      -0.101400
     39 C6          -0.5820     4.0620     1.3420 c5         1 JKT       0.096000
     40 OXT          1.3700     2.4170    -1.5750 oh         1 JKT      -0.679000
     41 H141        -3.6730    -2.1150     1.7010 hc         1 JKT       0.059700
     42 H142        -3.2680    -1.8900     0.0220 hc         1 JKT       0.059700
     43 H151        -5.9190    -1.0610     1.3130 hc         1 JKT       0.060700
     44 H152        -5.5020    -0.7920    -0.3670 hc         1 JKT       0.060700
     45 H161        -5.2120    -3.2580    -0.6870 hc         1 JKT       0.043700
     46 H162        -5.6440    -3.5240     0.9910 hc         1 JKT       0.043700
     47 H18         -6.9150    -2.5500    -2.3280 ha         1 JKT       0.110000
     48 H22         -7.9620    -3.2080     1.7660 ha         1 JKT       0.110000
     49 H19         -9.3010    -2.5000    -2.9330 ha         1 JKT       0.111500
     50 H21        -10.3490    -3.1580     1.1650 ha         1 JKT       0.111500
     51 H20        -11.0340    -2.8040    -1.1880 ha         1 JKT       0.111000
     52 H231        -1.4330    -1.9980     1.9810 h1         1 JKT       0.065700
     53 H232        -0.9250    -1.4830     0.3770 h1         1 JKT       0.065700
     54 H10         -1.9150     1.9000     2.2460 h1         1 JKT       0.095700
     55 H24          0.4940    -1.1480     2.9170 h1         1 JKT       0.100700
     56 H251         0.8370     1.4980     1.9970 hc         1 JKT       0.073200
     57 H252        -0.1090     1.0000     3.3850 hc         1 JKT       0.073200
     58 H30          0.8310     0.0840    -0.7190 h4         1 JKT       0.201000
     59 H311         3.6130    -1.7700    -2.2530 h1         1 JKT       0.070200
     60 H312         3.0410    -0.1290    -2.4110 h1         1 JKT       0.070200
     61 H32          5.0400     0.6270    -1.2720 hn         1 JKT       0.313500
     62 H391         8.8260    -0.9280    -2.9760 hc         1 JKT       0.048811
     63 H392         9.8920    -1.9980    -2.0710 hc         1 JKT       0.048811
     64 H393         8.2820    -2.5500    -2.5150 hc         1 JKT       0.048811
     65 H371         8.8860     0.4790     0.5060 hc         1 JKT       0.048811
     66 H372        10.2530    -0.3080    -0.2780 hc         1 JKT       0.048811
     67 H373         9.2630     0.8300    -1.1880 hc         1 JKT       0.048811
     68 H381         7.7720    -3.0710    -0.0780 hc         1 JKT       0.048811
     69 H382         9.3350    -2.4750     0.4660 hc         1 JKT       0.048811
     70 H383         7.8610    -1.7870     1.1380 hc         1 JKT       0.048811
     71 H3          -1.0860     3.4650    -1.8030 h1         1 JKT       0.091700
     72 H61C        -1.0630     3.6790     2.2370 h1         1 JKT       0.048700
     73 H62C         0.4650     4.2620     1.5900 h1         1 JKT       0.048700
     74 H41C         0.0570     5.9780    -0.7970 hc         1 JKT       0.062200
     75 H42C        -1.5860     5.7160    -1.3370 hc         1 JKT       0.062200
     76 H21N         2.1310     4.5950    -2.9810 hn         1 JKT       0.411500
     77 H22N         0.6580     4.0840    -3.4600 hn         1 JKT       0.411500
     78 H51C        -0.9800     6.2080     1.3310 hc         1 JKT       0.058700
     79 H52C        -2.3440     5.1920     0.8660 hc         1 JKT       0.058700
     80 HOXT         2.3290     2.3630    -1.6280 ho         1 JKT       0.436000
     81 H1C          1.6490     4.2740    -0.7320 h2         1 JKT       0.041700
@<TRIPOS>BOND
     1     1     2 1   
     2     1    10 1   
     3     1    41 1   
     4     1    42 1   
     5     2     3 1   
     6     2    43 1   
     7     2    44 1   
     8     3     4 1   
     9     3    45 1   
    10     3    46 1   
    11     4     5 ar  
    12     4     6 ar  
    13     5     7 ar  
    14     5    47 1   
    15     6     8 ar  
    16     6    48 1   
    17     7     9 ar  
    18     7    49 1   
    19     8     9 ar  
    20     8    50 1   
    21     9    51 1   
    22    10    11 2   
    23    10    12 1   
    24    12    13 1   
    25    12    14 1   
    26    13    18 1   
    27    13    52 1   
    28    13    53 1   
    29    14    15 1   
    30    14    17 1   
    31    14    54 1   
    32    15    16 2   
    33    15    33 1   
    34    17    18 1   
    35    17    56 1   
    36    17    57 1   
    37    18    19 1   
    38    18    55 1   
    39    19    20 1   
    40    19    22 1   
    41    20    21 2   
    42    21    23 1   
    43    22    23 2   
    44    22    58 1   
    45    23    24 1   
    46    24    25 1   
    47    24    59 1   
    48    24    60 1   
    49    25    27 1   
    50    25    61 1   
    51    26    27 2   
    52    27    28 1   
    53    28    29 1   
    54    29    30 1   
    55    29    31 1   
    56    29    32 1   
    57    30    62 1   
    58    30    63 1   
    59    30    64 1   
    60    31    65 1   
    61    31    66 1   
    62    31    67 1   
    63    32    68 1   
    64    32    69 1   
    65    32    70 1   
    66    33    34 1   
    67    33    39 1   
    68    34    35 1   
    69    34    37 1   
    70    34    71 1   
    71    35    36 1   
    72    35    40 1   
    73    35    81 1   
    74    36    76 1   
    75    36    77 1   
    76    37    38 1   
    77    37    74 1   
    78    37    75 1   
    79    38    39 1   
    80    38    78 1   
    81    38    79 1   
    82    39    72 1   
    83    39    73 1   
    84    40    80 1   
@<TRIPOS>SUBSTRUCTURE
     1 JKT         1 TEMP              0 ****  ****    0 ROOT
