@<TRIPOS>MOLECULE
JKT
   81    84     1     0     0
SMALL
No Charge or Current Charge


@<TRIPOS>ATOM
      1 C14         -2.3840    -1.4600     0.7240 c3         1 JKT      -0.154400
      2 C15         -3.6430    -2.1010     0.0870 c3         1 JKT      -0.063400
      3 C16         -3.5300    -3.6320    -0.0670 c3         1 JKT      -0.033100
      4 C17         -4.8050    -4.2530    -0.6240 ca         1 JKT      -0.078300
      5 C18         -5.0750    -4.2000    -2.0060 ca         1 JKT      -0.106000
      6 C22         -5.7270    -4.8810     0.2360 ca         1 JKT      -0.106000
      7 C19         -6.2520    -4.7710    -2.5210 ca         1 JKT      -0.109000
      8 C21         -6.9030    -5.4530    -0.2790 ca         1 JKT      -0.109000
      9 C20         -7.1660    -5.3980    -1.6580 ca         1 JKT      -0.111000
     10 C12         -2.4270     0.0700     0.9020 c          1 JKT       0.619100
     11 O13         -3.3600     0.7380     0.4730 o          1 JKT      -0.590100
     12 N11         -1.3480     0.6970     1.5620 n          1 JKT      -0.402800
     13 C23         -0.2660    -0.0310     2.2680 c5         1 JKT       0.091000
     14 C10         -1.2900     2.1710     1.7620 c5         1 JKT       0.027700
     15 C8          -0.9110     2.9820     0.4680 c          1 JKT       0.601100
     16 O9          -0.6780     2.4960    -0.6330 o          1 JKT      -0.595100
     17 C25         -0.1920     2.2870     2.8730 c5         1 JKT      -0.095400
     18 C24          0.7640     1.0960     2.5750 c5         1 JKT       0.079300
     19 N26          1.7670     1.3680     1.5300 na         1 JKT       0.114800
     20 N27          2.8240     2.1890     1.7930 nc         1 JKT      -0.213800
     21 N28          3.5460     2.2340     0.7070 nd         1 JKT      -0.335000
     22 C30          1.8220     0.8800     0.2470 cc         1 JKT      -0.186000
     23 C29          2.9580     1.4440    -0.2590 cd         1 JKT       0.146300
     24 C31          3.5460     1.2690    -1.6380 c3         1 JKT       0.099700
     25 N32          4.5150     0.1680    -1.7000 ns         1 JKT      -0.494900
     26 O34          3.0450    -1.5860    -1.5950 o          1 JKT      -0.535000
     27 C33          4.1860    -1.1560    -1.6560 c          1 JKT       0.655100
     28 O35          5.3450    -1.8820    -1.6870 os         1 JKT      -0.483100
     29 C36          5.3610    -3.3280    -1.6240 c3         1 JKT       0.226000
     30 C39          4.6180    -3.9140    -2.8530 c3         1 JKT      -0.108100
     31 C37          6.8600    -3.6960    -1.6920 c3         1 JKT      -0.108100
     32 C38          4.7610    -3.7950    -0.2730 c3         1 JKT      -0.108100
     33 N7          -0.7600     4.3700     0.7070 n          1 JKT      -0.401800
     34 C3          -0.2250     5.2990    -0.3360 c5         1 JKT       0.115700
     35 C1           1.2350     4.9810    -0.8290 c3         1 JKT       0.374500
     36 N2           1.8250     6.0220    -1.6260 n8         1 JKT      -1.038200
     37 C4          -0.3050     6.6490     0.4360 c5         1 JKT      -0.082400
     38 C5          -1.6670     6.5170     1.1460 c5         1 JKT      -0.101400
     39 C6          -1.5640     5.0900     1.7330 c5         1 JKT       0.096000
     40 OXT          1.2480     3.9490    -1.7730 oh         1 JKT      -0.679000
     41 H141        -2.1540    -1.9120     1.6950 hc         1 JKT       0.059700
     42 H142        -1.4780    -1.7000     0.1550 hc         1 JKT       0.059700
     43 H151        -4.5180    -1.8680     0.7070 hc         1 JKT       0.060700
     44 H152        -3.8220    -1.6520    -0.8990 hc         1 JKT       0.060700
     45 H161        -2.6830    -3.8660    -0.7250 hc         1 JKT       0.043700
     46 H162        -3.2900    -4.0750     0.9080 hc         1 JKT       0.043700
     47 H18         -4.3730    -3.7150    -2.6810 ha         1 JKT       0.110000
     48 H22         -5.5330    -4.9270     1.3060 ha         1 JKT       0.110000
     49 H19         -6.4550    -4.7270    -3.5890 ha         1 JKT       0.111500
     50 H21         -7.6110    -5.9380     0.3900 ha         1 JKT       0.111500
     51 H20         -8.0770    -5.8410    -2.0570 ha         1 JKT       0.111000
     52 H231        -0.6520    -0.4720     3.1980 h1         1 JKT       0.065700
     53 H232         0.1720    -0.8400     1.6690 h1         1 JKT       0.065700
     54 H10         -2.2550     2.5460     2.1240 h1         1 JKT       0.095700
     55 H24          1.3200     0.8330     3.4850 h1         1 JKT       0.100700
     56 H251         0.3320     3.2480     2.8900 hc         1 JKT       0.073200
     57 H252        -0.6470     2.1660     3.8630 hc         1 JKT       0.073200
     58 H30          1.0950     0.2110    -0.1920 h4         1 JKT       0.201000
     59 H311         2.7370     1.0770    -2.3540 h1         1 JKT       0.070200
     60 H312         4.0460     2.1990    -1.9390 h1         1 JKT       0.070200
     61 H32          5.5030     0.3780    -1.7390 hn         1 JKT       0.313500
     62 H391         4.9530    -3.4310    -3.7790 hc         1 JKT       0.048811
     63 H392         4.8170    -4.9890    -2.9410 hc         1 JKT       0.048811
     64 H393         3.5320    -3.7930    -2.7720 hc         1 JKT       0.048811
     65 H371         7.4090    -3.2520    -0.8530 hc         1 JKT       0.048811
     66 H372         6.9970    -4.7830    -1.6500 hc         1 JKT       0.048811
     67 H373         7.3090    -3.3330    -2.6240 hc         1 JKT       0.048811
     68 H381         3.6740    -3.6660    -0.2400 hc         1 JKT       0.048811
     69 H382         4.9660    -4.8610    -0.1140 hc         1 JKT       0.048811
     70 H383         5.2020    -3.2380     0.5630 hc         1 JKT       0.048811
     71 H3          -0.8940     5.3190    -1.2070 h1         1 JKT       0.091700
     72 H61C        -2.5620     4.6560     1.8770 h1         1 JKT       0.048700
     73 H62C        -1.0430     5.0990     2.7000 h1         1 JKT       0.048700
     74 H41C         0.5140     6.7500     1.1580 hc         1 JKT       0.062200
     75 H42C        -0.2640     7.5180    -0.2310 hc         1 JKT       0.062200
     76 H21N         2.7000     5.6290    -1.9810 hn         1 JKT       0.411500
     77 H22N         1.2590     6.0790    -2.4750 hn         1 JKT       0.411500
     78 H51C        -1.8230     7.2780     1.9190 hc         1 JKT       0.058700
     79 H52C        -2.4970     6.5940     0.4340 hc         1 JKT       0.058700
     80 HOXT         0.5920     3.2890    -1.4300 ho         1 JKT       0.436000
     81 H1C          1.8800     4.7270     0.0230 h2         1 JKT       0.041700
@<TRIPOS>BOND
     1     1     2 1   
     2     1    10 1   
     3     1    41 1   
     4     1    42 1   
     5     2     3 1   
     6     2    43 1   
     7     2    44 1   
     8     3     4 1   
     9     3    45 1   
    10     3    46 1   
    11     4     5 ar  
    12     4     6 ar  
    13     5     7 ar  
    14     5    47 1   
    15     6     8 ar  
    16     6    48 1   
    17     7     9 ar  
    18     7    49 1   
    19     8     9 ar  
    20     8    50 1   
    21     9    51 1   
    22    10    11 2   
    23    10    12 1   
    24    12    13 1   
    25    12    14 1   
    26    13    18 1   
    27    13    52 1   
    28    13    53 1   
    29    14    15 1   
    30    14    17 1   
    31    14    54 1   
    32    15    16 2   
    33    15    33 1   
    34    17    18 1   
    35    17    56 1   
    36    17    57 1   
    37    18    19 1   
    38    18    55 1   
    39    19    20 1   
    40    19    22 1   
    41    20    21 2   
    42    21    23 1   
    43    22    23 2   
    44    22    58 1   
    45    23    24 1   
    46    24    25 1   
    47    24    59 1   
    48    24    60 1   
    49    25    27 1   
    50    25    61 1   
    51    26    27 2   
    52    27    28 1   
    53    28    29 1   
    54    29    30 1   
    55    29    31 1   
    56    29    32 1   
    57    30    62 1   
    58    30    63 1   
    59    30    64 1   
    60    31    65 1   
    61    31    66 1   
    62    31    67 1   
    63    32    68 1   
    64    32    69 1   
    65    32    70 1   
    66    33    34 1   
    67    33    39 1   
    68    34    35 1   
    69    34    37 1   
    70    34    71 1   
    71    35    36 1   
    72    35    40 1   
    73    35    81 1   
    74    36    76 1   
    75    36    77 1   
    76    37    38 1   
    77    37    74 1   
    78    37    75 1   
    79    38    39 1   
    80    38    78 1   
    81    38    79 1   
    82    39    72 1   
    83    39    73 1   
    84    40    80 1   
@<TRIPOS>SUBSTRUCTURE
     1 JKT         1 TEMP              0 ****  ****    0 ROOT
