@<TRIPOS>MOLECULE
JKU
   80    83     1     0     0
SMALL
No Charge or Current Charge


@<TRIPOS>ATOM
      1 C2          -5.5760    -3.0830    -3.9360 cc         1 JKU       0.752800
      2 N2          -5.5330    -2.6770    -5.1830 nv         1 JKU      -1.060200
      3 O4          -7.3780    -5.5400    -2.2400 o          1 JKU      -0.495000
      4 C4          -6.5860    -4.6260    -2.4350 c          1 JKU       0.492500
      5 N3          -6.4210    -4.0910    -3.6680 ns         1 JKU      -0.462400
      6 C4A         -5.7230    -3.9950    -1.3770 ca         1 JKU       0.155500
      7 N1          -4.7850    -2.4530    -3.1130 nd         1 JKU      -0.772700
      8 C8A         -4.8600    -2.9280    -1.7810 ca         1 JKU       0.331000
      9 N8          -4.0750    -2.3410    -0.8480 nb         1 JKU      -0.122000
     10 C7          -4.1300    -2.7790     0.4350 ca         1 JKU       0.047500
     11 N5          -5.7890    -4.4470    -0.0890 nb         1 JKU      -0.572000
     12 C6          -4.9860    -3.8310     0.8090 ca         1 JKU       0.294900
     13 CBH         -3.2540    -2.1260     1.4750 c          1 JKU       0.512600
     14 NBG         -2.4300    -1.1060     1.0330 ns         1 JKU      -0.457900
     15 CBF         -1.4490    -0.3910     1.8820 c3         1 JKU       0.013000
     16 CBE         -0.0280    -0.9910     1.7660 c          1 JKU       0.590100
     17 OBV          0.2670    -1.8490     0.9440 o          1 JKU      -0.550100
     18 NBD          0.8820    -0.4640     2.6670 ns         1 JKU      -0.494900
     19 CAV          2.2880    -0.9090     2.8520 c3         1 JKU       0.043700
     20 CAB          3.1330    -0.8490     1.5300 c          1 JKU       0.598100
     21 OAA          2.8100    -0.1730     0.5580 o          1 JKU      -0.646100
     22 CAW          2.4150    -2.2120     3.7050 c3         1 JKU      -0.032100
     23 CAX          1.6530    -3.4260     3.1790 ca         1 JKU      -0.077300
     24 CAY          2.2540    -4.3090     2.2580 ca         1 JKU      -0.092000
     25 CBC          0.3420    -3.6870     3.6270 ca         1 JKU      -0.092000
     26 CAZ          1.5470    -5.4270     1.7820 ca         1 JKU      -0.109500
     27 CBB         -0.3650    -4.8040     3.1480 ca         1 JKU      -0.109500
     28 CBA          0.2370    -5.6740     2.2250 ca         1 JKU      -0.120000
     29 CAM          9.1170     4.3960    -3.4480 ca         1 JKU      -0.086500
     30 CAN          9.3180     5.7870    -3.4330 ca         1 JKU      -0.118000
     31 CAO         10.4860     6.3240    -2.8660 ca         1 JKU      -0.111000
     32 CAP         11.4540     5.4680    -2.3140 ca         1 JKU      -0.118000
     33 CAQ         11.2530     4.0760    -2.3290 ca         1 JKU      -0.086500
     34 CAL         10.0830     3.5310    -2.8950 ca         1 JKU      -0.107300
     35 CAK          9.8730     2.0180    -2.9120 c3         1 JKU       0.230900
     36 OAJ          9.7770     1.5310    -1.5610 os         1 JKU      -0.462100
     37 CAI          8.6360     1.7830    -0.8610 c          1 JKU       0.638100
     38 OAR          7.6300     2.3250    -1.2930 o          1 JKU      -0.542000
     39 NAH          8.7820     1.2870     0.4030 ns         1 JKU      -0.492900
     40 CAG          7.7550     1.3220     1.4450 c3         1 JKU       0.113000
     41 CB           6.1350    -0.3560     0.2950 c3         1 JKU      -0.067400
     42 CA           5.2870    -1.6510     0.4200 c3         1 JKU      -0.042300
     43 C            6.1770    -2.9290     0.5480 c          1 JKU       0.717000
     44 O            6.5790    -3.4540    -0.4810 o          1 JKU      -0.727500
     45 OXT          6.3370    -3.4240     1.6570 o          1 JKU      -0.727500
     46 N            4.3070    -1.5780     1.5320 ns         1 JKU      -0.460900
     47 H30         -4.7590    -2.0470    -5.3500 hn         1 JKU       0.512500
     48 H31         -5.6600    -3.3860    -5.8940 hn         1 JKU       0.512500
     49 H33         -5.0370    -4.1900     1.8370 h4         1 JKU       0.060100
     50 H32         -6.9950    -4.4610    -4.4090 hn         1 JKU       0.322500
     51 H29         -2.4630    -0.8910     0.0410 hn         1 JKU       0.352500
     52 H27         -1.4010     0.6610     1.5760 h1         1 JKU       0.065200
     53 H28         -1.7590    -0.4280     2.9340 h1         1 JKU       0.065200
     54 H26          0.5310     0.2600     3.2830 hn         1 JKU       0.299500
     55 H18          2.7540    -0.1320     3.4720 h1         1 JKU       0.044700
     56 H19          3.4700    -2.4640     3.8590 hc         1 JKU       0.044200
     57 H20          2.0440    -1.9780     4.7110 hc         1 JKU       0.044200
     58 H21          3.2690    -4.1340     1.9100 ha         1 JKU       0.125000
     59 H25         -0.1350    -3.0190     4.3410 ha         1 JKU       0.125000
     60 H22          2.0160    -6.1020     1.0700 ha         1 JKU       0.107500
     61 H24         -1.3800    -4.9920     3.4920 ha         1 JKU       0.107500
     62 H23         -0.3100    -6.5370     1.8540 ha         1 JKU       0.097000
     63 H3          10.6410     7.4000    -2.8550 ha         1 JKU       0.104000
     64 H4          12.3580     5.8820    -1.8750 ha         1 JKU       0.106000
     65 H5          12.0070     3.4190    -1.8980 ha         1 JKU       0.117000
     66 H6           8.9780     1.7570    -3.4920 h1         1 JKU       0.063700
     67 H7          10.7320     1.5550    -3.4150 h1         1 JKU       0.063700
     68 H8           9.6740     0.8550     0.6070 hn         1 JKU       0.322500
     69 H9           8.2490     1.5250     2.4040 h1         1 JKU       0.043200
     70 H10          7.0610     2.1510     1.2490 h1         1 JKU       0.043200
     71 H13          6.8080    -0.4680    -0.5630 hc         1 JKU       0.045700
     72 H14          5.4720     0.4840     0.0590 hc         1 JKU       0.045700
     73 H15          4.7190    -1.7700    -0.5120 h1         1 JKU       0.065700
     74 H17          4.5160    -2.1120     2.3670 hn         1 JKU       0.338500
     75 H1           8.2070     3.9900    -3.8870 ha         1 JKU       0.117000
     76 CAF          6.9660    -0.0010     1.5560 c3         1 JKU      -0.094400
     77 OBU         -3.2620    -2.4710     2.6490 o          1 JKU      -0.594100
     78 H2           8.5670     6.4490    -3.8600 ha         1 JKU       0.106000
     79 H11          6.2950     0.0790     2.4200 hc         1 JKU       0.051700
     80 H12          7.6680    -0.8140     1.7760 hc         1 JKU       0.051700
@<TRIPOS>BOND
     1     1     2 1   
     2     1     5 1   
     3     1     7 2   
     4     2    47 1   
     5     2    48 1   
     6     3     4 2   
     7     4     5 1   
     8     4     6 1   
     9     5    50 1   
    10     6     8 ar  
    11     6    11 ar  
    12     7     8 1   
    13     8     9 ar  
    14     9    10 ar  
    15    10    12 ar  
    16    10    13 1   
    17    11    12 ar  
    18    12    49 1   
    19    13    14 1   
    20    13    77 2   
    21    14    15 1   
    22    14    51 1   
    23    15    16 1   
    24    15    52 1   
    25    15    53 1   
    26    16    17 2   
    27    16    18 1   
    28    18    19 1   
    29    18    54 1   
    30    19    20 1   
    31    19    22 1   
    32    19    55 1   
    33    20    21 2   
    34    20    46 1   
    35    22    23 1   
    36    22    56 1   
    37    22    57 1   
    38    23    24 ar  
    39    23    25 ar  
    40    24    26 ar  
    41    24    58 1   
    42    25    27 ar  
    43    25    59 1   
    44    26    28 ar  
    45    26    60 1   
    46    27    28 ar  
    47    27    61 1   
    48    28    62 1   
    49    29    30 ar  
    50    29    34 ar  
    51    29    75 1   
    52    30    31 ar  
    53    30    78 1   
    54    31    32 ar  
    55    31    63 1   
    56    32    33 ar  
    57    32    64 1   
    58    33    34 ar  
    59    33    65 1   
    60    34    35 1   
    61    35    36 1   
    62    35    66 1   
    63    35    67 1   
    64    36    37 1   
    65    37    38 2   
    66    37    39 1   
    67    39    40 1   
    68    39    68 1   
    69    40    69 1   
    70    40    70 1   
    71    40    76 1   
    72    41    42 1   
    73    41    71 1   
    74    41    72 1   
    75    41    76 1   
    76    42    43 1   
    77    42    46 1   
    78    42    73 1   
    79    43    44 1   
    80    43    45 1   
    81    46    74 1   
    82    76    79 1   
    83    76    80 1   
@<TRIPOS>SUBSTRUCTURE
     1 JKU         1 TEMP              0 ****  ****    0 ROOT
