@<TRIPOS>MOLECULE
JKU
   80    83     1     0     0
SMALL
abcg2


@<TRIPOS>ATOM
      1 C2          -4.9460    -2.9930    -4.1250 cc         1 JKU       0.752800
      2 N2          -4.9520    -2.5330    -5.3730 nv         1 JKU      -1.060200
      3 O4          -6.4540    -5.7240    -2.4770 o          1 JKU      -0.495000
      4 C4          -5.7920    -4.7240    -2.6430 c          1 JKU       0.492500
      5 N3          -5.6840    -4.1190    -3.8770 ns         1 JKU      -0.462400
      6 C4A         -5.0290    -4.0250    -1.6030 ca         1 JKU       0.155500
      7 N1          -4.2600    -2.3690    -3.2050 nd         1 JKU      -0.772700
      8 C8A         -4.2970    -2.8740    -1.9570 ca         1 JKU       0.331000
      9 N8          -3.5940    -2.2400    -1.0100 nb         1 JKU      -0.122000
     10 C7          -3.6280    -2.7220     0.2120 ca         1 JKU       0.047500
     11 N5          -5.0580    -4.5050    -0.3690 nb         1 JKU      -0.572000
     12 C6          -4.3660    -3.8640     0.5480 ca         1 JKU       0.294900
     13 CBH         -2.8300    -2.0200     1.2760 c          1 JKU       0.512600
     14 NBG         -2.1600    -0.9430     0.8550 ns         1 JKU      -0.457900
     15 CBF         -1.2460    -0.2410     1.7030 c3         1 JKU       0.013000
     16 CBE          0.1020    -0.9540     1.8190 c          1 JKU       0.590100
     17 OBV          0.3980    -1.8930     1.1070 o          1 JKU      -0.550100
     18 NBD          0.9150    -0.4160     2.7460 ns         1 JKU      -0.494900
     19 CAV          2.3060    -0.7660     2.9100 c3         1 JKU       0.043700
     20 CAB          3.0070    -0.7960     1.5410 c          1 JKU       0.598100
     21 OAA          2.6800     0.0070     0.6780 o          1 JKU      -0.646100
     22 CAW          2.5100    -1.9390     3.8900 c3         1 JKU      -0.032100
     23 CAX          1.7100    -3.1850     3.6310 ca         1 JKU      -0.077300
     24 CAY          2.2090    -4.2430     2.8730 ca         1 JKU      -0.092000
     25 CBC          0.4340    -3.3070     4.1760 ca         1 JKU      -0.092000
     26 CAZ          1.4440    -5.3780     2.6460 ca         1 JKU      -0.109500
     27 CBB         -0.3360    -4.4390     3.9510 ca         1 JKU      -0.109500
     28 CBA          0.1660    -5.4800     3.1800 ca         1 JKU      -0.120000
     29 CAM          8.7540     4.8290    -3.2730 ca         1 JKU      -0.086500
     30 CAN          9.2350     6.1040    -3.0040 ca         1 JKU      -0.118000
     31 CAO         10.4410     6.2660    -2.3360 ca         1 JKU      -0.111000
     32 CAP         11.1650     5.1460    -1.9470 ca         1 JKU      -0.118000
     33 CAQ         10.6890     3.8730    -2.2280 ca         1 JKU      -0.086500
     34 CAL          9.4760     3.7040    -2.8920 ca         1 JKU      -0.107300
     35 CAK          8.9710     2.3280    -3.2310 c3         1 JKU       0.230900
     36 OAJ          9.0940     1.4130    -2.1480 os         1 JKU      -0.462100
     37 CAI          8.2620     1.5920    -1.1070 c          1 JKU       0.638100
     38 OAR          7.3800     2.4250    -1.0920 o          1 JKU      -0.542000
     39 NAH          8.5560     0.7350    -0.1170 ns         1 JKU      -0.492900
     40 CAG          7.7920     0.6240     1.1070 c3         1 JKU       0.113000
     41 CB           5.8390    -0.6320     0.0640 c3         1 JKU      -0.067400
     42 CA           4.8270    -1.7750     0.2070 c3         1 JKU      -0.042300
     43 C            5.5530    -3.1450     0.2200 c          1 JKU       0.717000
     44 O            6.1680    -3.4300    -0.8200 o          1 JKU      -0.727500
     45 OXT          5.4780    -3.8200     1.2680 o          1 JKU      -0.727500
     46 N            4.0240    -1.6480     1.4040 ns         1 JKU      -0.460900
     47 H30         -4.4030    -1.7190    -5.5930 hn         1 JKU       0.512500
     48 H31         -5.4390    -2.9920    -6.1240 hn         1 JKU       0.512500
     49 H33         -4.3830    -4.2470     1.5590 h4         1 JKU       0.060100
     50 H32         -6.1970    -4.5530    -4.6360 hn         1 JKU       0.322500
     51 H29         -2.1790    -0.7320    -0.1310 hn         1 JKU       0.352500
     52 H27         -1.0760     0.7500     1.2800 h1         1 JKU       0.065200
     53 H28         -1.6810    -0.0900     2.6930 h1         1 JKU       0.065200
     54 H26          0.5760     0.3700     3.2770 hn         1 JKU       0.299500
     55 H18          2.7650     0.0980     3.4020 h1         1 JKU       0.044700
     56 H19          3.5760    -2.1680     3.9690 hc         1 JKU       0.044200
     57 H20          2.2360    -1.5520     4.8740 hc         1 JKU       0.044200
     58 H21          3.2050    -4.1920     2.4510 ha         1 JKU       0.125000
     59 H25          0.0370    -2.5050     4.7870 ha         1 JKU       0.125000
     60 H22          1.8500    -6.1890     2.0540 ha         1 JKU       0.107500
     61 H24         -1.3260    -4.5110     4.3820 ha         1 JKU       0.107500
     62 H23         -0.4310    -6.3660     3.0050 ha         1 JKU       0.097000
     63 H3          10.8140     7.2580    -2.1180 ha         1 JKU       0.104000
     64 H4          12.1070     5.2640    -1.4260 ha         1 JKU       0.106000
     65 H5          11.2690     3.0100    -1.9250 ha         1 JKU       0.117000
     66 H6           7.9410     2.3750    -3.5900 h1         1 JKU       0.063700
     67 H7           9.5770     1.8900    -4.0250 h1         1 JKU       0.063700
     68 H8           9.3010     0.0710    -0.2660 hn         1 JKU       0.322500
     69 H9           8.4900     0.6030     1.9460 h1         1 JKU       0.043200
     70 H10          7.1920     1.5270     1.2180 h1         1 JKU       0.043200
     71 H13          6.3150    -0.7250    -0.9140 hc         1 JKU       0.045700
     72 H14          5.3000     0.3180     0.0540 hc         1 JKU       0.045700
     73 H15          4.1640    -1.7490    -0.6640 h1         1 JKU       0.065700
     74 H17          4.2520    -2.3210     2.1200 hn         1 JKU       0.338500
     75 H1           7.8050     4.7100    -3.7820 ha         1 JKU       0.117000
     76 CAF          6.8980    -0.6090     1.1570 c3         1 JKU      -0.094400
     77 OBU         -2.8330    -2.4280     2.4260 o          1 JKU      -0.594100
     78 H2           8.6610     6.9700    -3.3080 ha         1 JKU       0.106000
     79 H11          6.4230    -0.6280     2.1430 hc         1 JKU       0.051700
     80 H12          7.5240    -1.5040     1.0980 hc         1 JKU       0.051700
@<TRIPOS>BOND
     1     1     2 1   
     2     1     5 1   
     3     1     7 2   
     4     2    47 1   
     5     2    48 1   
     6     3     4 2   
     7     4     5 1   
     8     4     6 1   
     9     5    50 1   
    10     6     8 ar  
    11     6    11 ar  
    12     7     8 1   
    13     8     9 ar  
    14     9    10 ar  
    15    10    12 ar  
    16    10    13 1   
    17    11    12 ar  
    18    12    49 1   
    19    13    14 1   
    20    13    77 2   
    21    14    15 1   
    22    14    51 1   
    23    15    16 1   
    24    15    52 1   
    25    15    53 1   
    26    16    17 2   
    27    16    18 1   
    28    18    19 1   
    29    18    54 1   
    30    19    20 1   
    31    19    22 1   
    32    19    55 1   
    33    20    21 2   
    34    20    46 1   
    35    22    23 1   
    36    22    56 1   
    37    22    57 1   
    38    23    24 ar  
    39    23    25 ar  
    40    24    26 ar  
    41    24    58 1   
    42    25    27 ar  
    43    25    59 1   
    44    26    28 ar  
    45    26    60 1   
    46    27    28 ar  
    47    27    61 1   
    48    28    62 1   
    49    29    30 ar  
    50    29    34 ar  
    51    29    75 1   
    52    30    31 ar  
    53    30    78 1   
    54    31    32 ar  
    55    31    63 1   
    56    32    33 ar  
    57    32    64 1   
    58    33    34 ar  
    59    33    65 1   
    60    34    35 1   
    61    35    36 1   
    62    35    66 1   
    63    35    67 1   
    64    36    37 1   
    65    37    38 2   
    66    37    39 1   
    67    39    40 1   
    68    39    68 1   
    69    40    69 1   
    70    40    70 1   
    71    40    76 1   
    72    41    42 1   
    73    41    71 1   
    74    41    72 1   
    75    41    76 1   
    76    42    43 1   
    77    42    46 1   
    78    42    73 1   
    79    43    44 1   
    80    43    45 1   
    81    46    74 1   
    82    76    79 1   
    83    76    80 1   
@<TRIPOS>SUBSTRUCTURE
     1 JKU         1 TEMP              0 ****  ****    0 ROOT
