@<TRIPOS>MOLECULE
JKV
   21    22     1     0     0
SMALL
bcc


@<TRIPOS>ATOM
      1 C10         -2.7200     0.0040    -0.0010 ca         1 JKV       0.030400
      2 C13         -0.6240    -1.1460    -0.0010 ca         1 JKV      -0.101000
      3 C02          3.6830    -0.4080     0.0110 cc         1 JKV       0.195300
      4 C03          2.4240    -0.9910     0.0080 cd         1 JKV      -0.392300
      5 C04          1.5300     0.1020     0.0080 cd         1 JKV       0.406800
      6 N05          2.1720     1.2550     0.0100 nc         1 JKV      -0.531800
      7 N06          3.4730     0.9230     0.0140 na         1 JKV      -0.052600
      8 C07          0.0660     0.0660     0.0050 ca         1 JKV      -0.111500
      9 C08         -0.6780     1.2480     0.0090 ca         1 JKV      -0.101000
     10 C09         -2.0620     1.2250     0.0050 ca         1 JKV      -0.128500
     11 CL11        -4.4530    -0.0340    -0.0050 cl         1 JKV      -0.117400
     12 C12         -2.0100    -1.1850    -0.0040 ca         1 JKV      -0.128500
     13 H131        -0.0820    -2.0830    -0.0040 ha         1 JKV       0.144000
     14 H011         5.0230    -1.9550     0.0250 hn         1 JKV       0.440800
     15 H012         5.7490    -0.3990     0.0260 hn         1 JKV       0.440800
     16 H031         2.2100    -2.0460     0.0070 ha         1 JKV       0.161000
     17 H061         4.1720     1.6470     0.0100 hn         1 JKV       0.314700
     18 H081        -0.1690     2.2030     0.0140 ha         1 JKV       0.144000
     19 H091        -2.6210     2.1510     0.0080 ha         1 JKV       0.145500
     20 H121        -2.5260    -2.1360    -0.0100 ha         1 JKV       0.145500
     21 N01          4.9170    -0.9590     0.0100 nv         1 JKV      -0.903200
@<TRIPOS>BOND
     1     1    10 ar  
     2     1    11 1   
     3     1    12 ar  
     4     2     8 ar  
     5     2    12 ar  
     6     2    13 1   
     7     3     4 2   
     8     3     7 1   
     9     3    21 1   
    10     4     5 1   
    11     4    16 1   
    12     5     6 2   
    13     5     8 1   
    14     6     7 1   
    15     7    17 1   
    16     8     9 ar  
    17     9    10 ar  
    18     9    18 1   
    19    10    19 1   
    20    12    20 1   
    21    14    21 1   
    22    15    21 1   
@<TRIPOS>SUBSTRUCTURE
     1 JKV         1 TEMP              0 ****  ****    0 ROOT
