@<TRIPOS>MOLECULE
JKV
   21    22     1     0     0
SMALL
No Charge or Current Charge


@<TRIPOS>ATOM
      1 C10         -2.7560    -0.0290     0.0080 ca         1 JKV       0.122000
      2 C13         -0.5910    -1.1400     0.0440 ca         1 JKV      -0.083000
      3 C02          3.7050    -0.4130    -0.0390 cc         1 JKV       0.283000
      4 C03          2.4520    -0.9140    -0.0810 cd         1 JKV      -0.309000
      5 C04          1.5540     0.1790     0.0070 cd         1 JKV       0.341500
      6 N05          2.1960     1.3370     0.0980 nc         1 JKV      -0.531800
      7 N06          3.5320     0.9560     0.0690 na         1 JKV      -0.052200
      8 C07          0.0730     0.1080    -0.0020 ca         1 JKV      -0.111500
      9 C08         -0.7100     1.2870    -0.0330 ca         1 JKV      -0.083000
     10 C09         -2.1150     1.2170    -0.0310 ca         1 JKV      -0.110500
     11 Cl11        -4.5130    -0.1150     0.0120 cl         1 JKV      -0.209000
     12 C12         -1.9960    -1.2070     0.0470 ca         1 JKV      -0.110500
     13 H131        -0.0270    -2.0690     0.0820 ha         1 JKV       0.126000
     14 H011         4.9510    -2.0520    -0.0050 hn         1 JKV       0.496000
     15 H012         5.7650    -0.5280     0.1540 hn         1 JKV       0.496000
     16 H031         2.1950    -1.9610    -0.1710 ha         1 JKV       0.143000
     17 H061         4.2820     1.6390     0.1180 hn         1 JKV       0.365000
     18 H081        -0.2360     2.2650    -0.0640 ha         1 JKV       0.126000
     19 H091        -2.7050     2.1290    -0.0580 ha         1 JKV       0.127500
     20 H121        -2.4940    -2.1720     0.0810 ha         1 JKV       0.127500
     21 N01          4.9130    -1.0350    -0.0920 nv         1 JKV      -1.152000
@<TRIPOS>BOND
     1     1    10 ar  
     2     1    11 1   
     3     1    12 ar  
     4     2     8 ar  
     5     2    12 ar  
     6     2    13 1   
     7     3     4 2   
     8     3     7 1   
     9     3    21 1   
    10     4     5 1   
    11     4    16 1   
    12     5     6 2   
    13     5     8 1   
    14     6     7 1   
    15     7    17 1   
    16     8     9 ar  
    17     9    10 ar  
    18     9    18 1   
    19    10    19 1   
    20    12    20 1   
    21    14    21 1   
    22    15    21 1   
@<TRIPOS>SUBSTRUCTURE
     1 JKV         1 TEMP              0 ****  ****    0 ROOT
