@<TRIPOS>MOLECULE
JKW
   55    58     1     0     0
SMALL
abcg2


@<TRIPOS>ATOM
      1 C4           0.2820    -4.6980    -0.5040 c3         1 JKW       0.026500
      2 C14          0.2330     4.8830    -0.6920 c3         1 JKW       0.515000
      3 C5          -1.1590    -4.3560    -0.7620 ce         1 JKW      -0.802400
      4 C6          -1.9860    -3.9880     0.3470 c          1 JKW       0.736700
      5 C11          1.1990     2.7470    -0.7170 ca         1 JKW       0.098100
      6 C7          -2.8010    -2.4490    -1.0740 ce         1 JKW       0.823500
      7 C8           1.3240     0.0620    -0.0390 ca         1 JKW      -0.107500
      8 C9           1.9460     1.0240     0.7560 ca         1 JKW      -0.082000
      9 C10          1.8870     2.3670     0.4220 ca         1 JKW      -0.103000
     10 C12          0.5600     1.8150    -1.5170 ca         1 JKW      -0.103000
     11 C13          0.6250     0.4750    -1.1740 ca         1 JKW      -0.082000
     12 N1           0.7510    -2.2830    -0.3620 nc         1 JKW      -0.680000
     13 N2          -2.9250    -2.9590     0.0790 nf         1 JKW      -0.654100
     14 C3           1.0100    -3.5350     0.1140 cc         1 JKW       0.290300
     15 N3          -3.4880    -1.4830    -1.6560 nu         1 JKW      -0.886400
     16 C1           1.4030    -1.3630     0.2780 cd         1 JKW       0.475900
     17 S1           2.4070    -1.9850     1.5440 ss         1 JKW      -0.013400
     18 C2           1.8860    -3.5710     1.1540 cd         1 JKW      -0.244000
     19 S2          -1.4750    -3.2800    -2.0650 sx         1 JKW       0.076400
     20 F1           0.0840     4.8830     0.6330 f          1 JKW      -0.108667
     21 F2           0.5260     6.1130    -1.0810 f          1 JKW      -0.108667
     22 F3          -0.9490     4.5510    -1.2150 f          1 JKW      -0.108667
     23 O2          -1.8850    -4.4480     1.4770 o          1 JKW      -0.537100
     24 C15         -4.5140    -0.7210    -0.9630 c3         1 JKW       0.225800
     25 C16         -3.9970     0.6180    -0.4490 c6         1 JKW      -0.086700
     26 C17         -2.8450     0.4790     0.5420 c6         1 JKW      -0.072900
     27 C18         -2.4170     1.8430     1.0590 c6         1 JKW       0.167300
     28 N4          -3.5260     2.5470     1.6760 n3         1 JKW      -0.711600
     29 C19         -4.6140     2.7390     0.7370 c6         1 JKW       0.167300
     30 C20         -5.1250     1.4080     0.2070 c6         1 JKW      -0.072900
     31 C21         -3.0970     3.8030     2.2480 c3         1 JKW       0.152100
     32 H1           0.3410    -5.5600     0.1610 hc         1 JKW       0.060200
     33 H2           0.7880    -5.0040    -1.4240 hc         1 JKW       0.060200
     34 H3           2.4900     0.7410     1.6490 ha         1 JKW       0.128500
     35 H4           2.3930     3.1010     1.0340 ha         1 JKW       0.136500
     36 H5           0.0410     2.1200    -2.4160 ha         1 JKW       0.136500
     37 H6           0.1410    -0.2600    -1.8020 ha         1 JKW       0.128500
     38 H7          -3.2000    -1.1550    -2.5650 hn         1 JKW       0.495000
     39 H8           2.2330    -4.4280     1.7080 h4         1 JKW       0.168000
     40 H9          -5.3380    -0.5630    -1.6610 h1         1 JKW       0.069700
     41 H10         -4.8910    -1.3310    -0.1420 h1         1 JKW       0.069700
     42 H11         -3.6390     1.1940    -1.3140 hc         1 JKW       0.038700
     43 H12         -3.1580    -0.1510     1.3800 hc         1 JKW       0.054200
     44 H13         -1.9830    -0.0060     0.0800 hc         1 JKW       0.054200
     45 H14         -1.6190     1.7270     1.7970 h1         1 JKW       0.030450
     46 H15         -1.9880     2.4230     0.2240 h1         1 JKW       0.030450
     47 H17         -5.4230     3.2720     1.2440 h1         1 JKW       0.030450
     48 H18         -4.3040     3.3720    -0.1150 h1         1 JKW       0.030450
     49 H19         -5.9350     1.5860    -0.5060 hc         1 JKW       0.054200
     50 H20         -5.5450     0.8270     1.0340 hc         1 JKW       0.054200
     51 H21         -2.6830     4.5020     1.5040 h1         1 JKW       0.031033
     52 H22         -3.9370     4.2980     2.7370 h1         1 JKW       0.031033
     53 H23         -2.3260     3.6280     3.0000 h1         1 JKW       0.031033
     54 H24         -2.3720    -3.9010    -2.8700 hs         1 JKW       0.290000
     55 O1           1.2230     4.0810    -1.1020 os         1 JKW      -0.403100
@<TRIPOS>BOND
     1     1     3 1   
     2     1    14 1   
     3     1    32 1   
     4     1    33 1   
     5     2    20 1   
     6     2    21 1   
     7     2    22 1   
     8     2    55 1   
     9     3     4 1   
    10     3    19 2   
    11     4    13 1   
    12     4    23 2   
    13     5     9 ar  
    14     5    10 ar  
    15     5    55 1   
    16     6    13 2   
    17     6    15 1   
    18     6    19 1   
    19     7     8 ar  
    20     7    11 ar  
    21     7    16 1   
    22     8     9 ar  
    23     8    34 1   
    24     9    35 1   
    25    10    11 ar  
    26    10    36 1   
    27    11    37 1   
    28    12    14 1   
    29    12    16 2   
    30    14    18 2   
    31    15    24 1   
    32    15    38 1   
    33    16    17 1   
    34    17    18 1   
    35    18    39 1   
    36    19    54 1   
    37    24    25 1   
    38    24    40 1   
    39    24    41 1   
    40    25    26 1   
    41    25    30 1   
    42    25    42 1   
    43    26    27 1   
    44    26    43 1   
    45    26    44 1   
    46    27    28 1   
    47    27    45 1   
    48    27    46 1   
    49    28    29 1   
    50    28    31 1   
    51    29    30 1   
    52    29    47 1   
    53    29    48 1   
    54    30    49 1   
    55    30    50 1   
    56    31    51 1   
    57    31    52 1   
    58    31    53 1   
@<TRIPOS>SUBSTRUCTURE
     1 JKW         1 TEMP              0 ****  ****    0 ROOT
