@<TRIPOS>MOLECULE
JKW
   55    58     1     0     0
SMALL
No Charge or Current Charge


@<TRIPOS>ATOM
      1 C4           0.3200    -4.2750    -0.9620 c3         1 JKW       0.026500
      2 C14          0.5500     5.3610    -0.9710 c3         1 JKW       0.515000
      3 C5          -1.2130    -4.3470    -0.8990 ce         1 JKW      -0.802400
      4 C6          -1.9630    -3.8970     0.3170 c          1 JKW       0.736700
      5 C11          1.0870     3.2090     0.1720 ca         1 JKW       0.098100
      6 C7          -3.3880    -3.0360    -1.2370 ce         1 JKW       0.823500
      7 C8           1.3310     0.3810     0.3420 ca         1 JKW      -0.107500
      8 C9           1.6130     1.2000     1.4580 ca         1 JKW      -0.082000
      9 C10          1.4930     2.5980     1.3680 ca         1 JKW      -0.103000
     10 C12          0.8030     2.4000    -0.9500 ca         1 JKW      -0.103000
     11 C13          0.9170     1.0020    -0.8590 ca         1 JKW      -0.082000
     12 N1           0.8080    -1.8860    -0.4490 nc         1 JKW      -0.680000
     13 N2          -3.1930    -3.3030     0.0090 nf         1 JKW      -0.654100
     14 C3           0.9660    -3.2060    -0.0970 cc         1 JKW       0.290300
     15 N3          -4.2480    -1.9800    -1.5470 nu         1 JKW      -0.886400
     16 C1           1.3910    -1.0970     0.4450 cd         1 JKW       0.475900
     17 S1           2.2120    -1.9230     1.7710 ss         1 JKW      -0.013400
     18 C2           1.6910    -3.4320     1.0460 cd         1 JKW      -0.244000
     19 S2          -2.1720    -3.7510    -2.3580 sx         1 JKW       0.076400
     20 F1          -0.6990     5.0290    -1.3730 f          1 JKW      -0.108667
     21 F2           0.5270     6.6780    -0.6710 f          1 JKW      -0.108667
     22 F3           1.3810     5.2130    -2.0280 f          1 JKW      -0.108667
     23 O2          -1.5530    -4.0170     1.4550 o          1 JKW      -0.537100
     24 C15         -4.9650    -1.1060    -0.5990 c3         1 JKW       0.225800
     25 C16         -4.2200     0.2460    -0.3830 c6         1 JKW      -0.086700
     26 C17         -2.8610     0.0780     0.3550 c6         1 JKW      -0.072900
     27 C18         -2.1860     1.4450     0.6190 c6         1 JKW       0.167300
     28 N4          -3.0740     2.3670     1.3730 n3         1 JKW      -0.711600
     29 C19         -4.3580     2.5870     0.6560 c6         1 JKW       0.167300
     30 C20         -5.1030     1.2520     0.4050 c6         1 JKW      -0.072900
     31 C21         -2.3940     3.6350     1.7130 c3         1 JKW       0.152100
     32 H1           0.7440    -5.2510    -0.6950 hc         1 JKW       0.060200
     33 H2           0.6410    -4.1040    -1.9980 hc         1 JKW       0.060200
     34 H3           1.9130     0.7650     2.4090 ha         1 JKW       0.128500
     35 H4           1.7080     3.2140     2.2380 ha         1 JKW       0.136500
     36 H5           0.4830     2.8280    -1.8940 ha         1 JKW       0.136500
     37 H6           0.6790     0.4000    -1.7340 ha         1 JKW       0.128500
     38 H7          -4.2430    -1.7080    -2.5270 hn         1 JKW       0.495000
     39 H8           1.9250    -4.3820     1.5070 h4         1 JKW       0.168000
     40 H9          -5.9660    -0.8890    -0.9980 h1         1 JKW       0.069700
     41 H10         -5.1090    -1.5970     0.3740 h1         1 JKW       0.069700
     42 H11         -4.0310     0.6680    -1.3810 hc         1 JKW       0.038700
     43 H12         -3.0130    -0.4420     1.3100 hc         1 JKW       0.054200
     44 H13         -2.1770    -0.5440    -0.2360 hc         1 JKW       0.054200
     45 H14         -1.2570     1.2730     1.1810 h1         1 JKW       0.030450
     46 H15         -1.9060     1.8950    -0.3450 h1         1 JKW       0.030450
     47 H17         -5.0120     3.2500     1.2420 h1         1 JKW       0.030450
     48 H18         -4.1750     3.0830    -0.3090 h1         1 JKW       0.030450
     49 H19         -6.0320     1.4530    -0.1460 hc         1 JKW       0.054200
     50 H20         -5.3990     0.8160     1.3690 hc         1 JKW       0.054200
     51 H21         -2.1230     4.1900     0.8050 h1         1 JKW       0.031033
     52 H22         -3.0450     4.2730     2.3260 h1         1 JKW       0.031033
     53 H23         -1.4750     3.4420     2.2830 h1         1 JKW       0.031033
     54 H24         -2.9740    -4.8920    -2.4330 hs         1 JKW       0.290000
     55 O1           0.9780     4.5880     0.1690 os         1 JKW      -0.403100
@<TRIPOS>BOND
     1     1     3 1   
     2     1    14 1   
     3     1    32 1   
     4     1    33 1   
     5     2    20 1   
     6     2    21 1   
     7     2    22 1   
     8     2    55 1   
     9     3     4 1   
    10     3    19 2   
    11     4    13 1   
    12     4    23 2   
    13     5     9 ar  
    14     5    10 ar  
    15     5    55 1   
    16     6    13 2   
    17     6    15 1   
    18     6    19 1   
    19     7     8 ar  
    20     7    11 ar  
    21     7    16 1   
    22     8     9 ar  
    23     8    34 1   
    24     9    35 1   
    25    10    11 ar  
    26    10    36 1   
    27    11    37 1   
    28    12    14 1   
    29    12    16 2   
    30    14    18 2   
    31    15    24 1   
    32    15    38 1   
    33    16    17 1   
    34    17    18 1   
    35    18    39 1   
    36    19    54 1   
    37    24    25 1   
    38    24    40 1   
    39    24    41 1   
    40    25    26 1   
    41    25    30 1   
    42    25    42 1   
    43    26    27 1   
    44    26    43 1   
    45    26    44 1   
    46    27    28 1   
    47    27    45 1   
    48    27    46 1   
    49    28    29 1   
    50    28    31 1   
    51    29    30 1   
    52    29    47 1   
    53    29    48 1   
    54    30    49 1   
    55    30    50 1   
    56    31    51 1   
    57    31    52 1   
    58    31    53 1   
@<TRIPOS>SUBSTRUCTURE
     1 JKW         1 TEMP              0 ****  ****    0 ROOT
