@<TRIPOS>MOLECULE
JKX
   25    26     1     0     0
SMALL
abcg2


@<TRIPOS>ATOM
      1 N1          90.6740    -9.0390    15.1400 nb         1 JKX      -0.789000
      2 N3          92.6030    -8.5470    13.9570 nh         1 JKX      -0.802300
      3 C4          89.8910    -8.8160    16.1600 ca         1 JKX       0.614200
      4 C5          92.3660    -9.6970    13.0860 c6         1 JKX       0.241300
      5 C6          93.7650    -7.6990    13.6950 c6         1 JKX       0.241300
      6 C7          94.5440    -9.2870    11.8900 c          1 JKX       0.573100
      7 C8          94.2550    -7.8530    12.2570 c6         1 JKX      -0.203900
      8 C13         91.2340    -7.1180    17.0440 ca         1 JKX      -0.010000
      9 C2          91.7990    -8.3000    15.0260 ca         1 JKX       0.657900
     10 C9          93.6860   -10.2960    12.6080 c6         1 JKX      -0.203900
     11 O10         95.3910    -9.6000    11.0770 o          1 JKX      -0.514100
     12 F11         88.7850    -9.6030    16.2060 f          1 JKX      -0.237200
     13 C12         92.1080    -7.3140    15.9930 ca         1 JKX      -0.259000
     14 C14         90.0720    -7.8820    17.1600 ca         1 JKX      -0.257000
     15 H1          91.8060   -10.4410    13.6430 h1         1 JKX       0.057950
     16 H2          91.7510    -9.4100    12.2260 h1         1 JKX       0.057950
     17 H3          93.4920    -6.6560    13.8570 h1         1 JKX       0.057950
     18 H4          94.5780    -7.9350    14.3910 h1         1 JKX       0.057950
     19 H5          93.4780    -7.5050    11.5670 hc         1 JKX       0.081950
     20 H6          95.1410    -7.2420    12.0890 hc         1 JKX       0.081950
     21 H7          91.4620    -6.3690    17.7920 ha         1 JKX       0.119000
     22 H8          94.2630   -10.6470    13.4720 hc         1 JKX       0.081950
     23 H9          93.5130   -11.1570    11.9610 hc         1 JKX       0.081950
     24 H10         93.0150    -6.7360    15.9290 ha         1 JKX       0.125000
     25 H11         89.3630    -7.7640    17.9650 ha         1 JKX       0.143000
@<TRIPOS>BOND
     1     1     3 ar  
     2     1     9 ar  
     3     2     4 1   
     4     2     5 1   
     5     2     9 1   
     6     3    12 1   
     7     3    14 ar  
     8     4    10 1   
     9     4    15 1   
    10     4    16 1   
    11     5     7 1   
    12     5    17 1   
    13     5    18 1   
    14     6     7 1   
    15     6    10 1   
    16     6    11 2   
    17     7    19 1   
    18     7    20 1   
    19     8    13 ar  
    20     8    14 ar  
    21     8    21 1   
    22     9    13 ar  
    23    10    22 1   
    24    10    23 1   
    25    13    24 1   
    26    14    25 1   
@<TRIPOS>SUBSTRUCTURE
     1 JKX         1 TEMP              0 ****  ****    0 ROOT
