@<TRIPOS>MOLECULE
JKX
   25    26     1     0     0
SMALL
No Charge or Current Charge


@<TRIPOS>ATOM
      1 N1          90.5970    -8.8840    15.0210 nb         1 JKX      -0.789000
      2 N3          92.6870    -8.6300    14.0560 nh         1 JKX      -0.802300
      3 C4          89.7190    -8.6060    15.9990 ca         1 JKX       0.614200
      4 C5          92.5040    -9.8660    13.2330 c6         1 JKX       0.241300
      5 C6          93.7940    -7.7030    13.6790 c6         1 JKX       0.241300
      6 C7          94.4580    -9.2190    11.7640 c          1 JKX       0.573100
      7 C8          94.1210    -7.7930    12.1800 c6         1 JKX      -0.203900
      8 C13         91.2540    -7.1750    17.1780 ca         1 JKX      -0.010000
      9 C2          91.8060    -8.3120    15.1050 ca         1 JKX       0.657900
     10 C9          93.8270   -10.3240    12.6000 c6         1 JKX      -0.203900
     11 O10         95.1920    -9.4610    10.8160 o          1 JKX      -0.514100
     12 F11         88.5140    -9.2010    15.8760 f          1 JKX      -0.237200
     13 C12         92.1760    -7.4590    16.1610 ca         1 JKX      -0.259000
     14 C14         89.9900    -7.7690    17.0870 ca         1 JKX      -0.257000
     15 H1          92.1240   -10.6890    13.8570 h1         1 JKX       0.057950
     16 H2          91.7610    -9.6860    12.4420 h1         1 JKX       0.057950
     17 H3          93.5130    -6.6630    13.9030 h1         1 JKX       0.057950
     18 H4          94.6950    -7.9330    14.2670 h1         1 JKX       0.057950
     19 H5          93.2160    -7.5090    11.6270 hc         1 JKX       0.081950
     20 H6          94.9200    -7.1100    11.8680 hc         1 JKX       0.081950
     21 H7          91.5120    -6.5200    18.0090 ha         1 JKX       0.119000
     22 H8          94.5270   -10.5410    13.4160 hc         1 JKX       0.081950
     23 H9          93.7290   -11.2390    12.0030 hc         1 JKX       0.081950
     24 H10         93.1700    -7.0280    16.2040 ha         1 JKX       0.125000
     25 H11         89.2290    -7.5920    17.8400 ha         1 JKX       0.143000
@<TRIPOS>BOND
     1     1     3 ar  
     2     1     9 ar  
     3     2     4 1   
     4     2     5 1   
     5     2     9 1   
     6     3    12 1   
     7     3    14 ar  
     8     4    10 1   
     9     4    15 1   
    10     4    16 1   
    11     5     7 1   
    12     5    17 1   
    13     5    18 1   
    14     6     7 1   
    15     6    10 1   
    16     6    11 2   
    17     7    19 1   
    18     7    20 1   
    19     8    13 ar  
    20     8    14 ar  
    21     8    21 1   
    22     9    13 ar  
    23    10    22 1   
    24    10    23 1   
    25    13    24 1   
    26    14    25 1   
@<TRIPOS>SUBSTRUCTURE
     1 JKX         1 TEMP              0 ****  ****    0 ROOT
