@<TRIPOS>MOLECULE
JKY
   23    23     1     0     0
SMALL
No Charge or Current Charge


@<TRIPOS>ATOM
      1 C10          3.2730     0.1430    -0.0770 ca         1 JKY       0.128000
      2 C13          1.2160     1.3360     0.4440 ca         1 JKY      -0.082000
      3 C01         -3.7630     1.4810     0.1480 c3         1 JKY      -0.388100
      4 S02         -3.3960    -0.2540    -0.0380 s6         1 JKY       1.194100
      5 O03         -3.7220    -0.9610     1.2020 o          1 JKY      -0.526500
      6 O04         -3.9110    -0.7360    -1.3210 o          1 JKY      -0.526500
      7 N05         -1.7390    -0.2670    -0.1740 n7         1 JKY      -0.874300
      8 C06         -0.9310     0.0860     1.0010 c3         1 JKY       0.253100
      9 C07          0.5430     0.1100     0.6220 ca         1 JKY      -0.101300
     10 C08          1.2470    -1.0990     0.4470 ca         1 JKY      -0.082000
     11 C09          2.6090    -1.0820     0.0980 ca         1 JKY      -0.105500
     12 Cl11         4.9770     0.1640    -0.5140 cl         1 JKY      -0.199000
     13 C12          2.5790     1.3510     0.0950 ca         1 JKY      -0.105500
     14 H131         0.6860     2.2780     0.5750 ha         1 JKY       0.122500
     15 H011        -4.8520     1.5740     0.2010 h1         1 JKY       0.101367
     16 H012        -3.3010     1.8320     1.0760 h1         1 JKY       0.101367
     17 H013        -3.3690     2.0100    -0.7250 h1         1 JKY       0.101367
     18 H051        -1.5960     0.4500    -0.8820 hn         1 JKY       0.485000
     19 H062        -1.2130     1.0690     1.4030 h1         1 JKY       0.058200
     20 H061        -1.0770    -0.6480     1.8060 h1         1 JKY       0.058200
     21 H081         0.7350    -2.0500     0.5770 ha         1 JKY       0.122500
     22 H091         3.1490    -2.0160    -0.0380 ha         1 JKY       0.132500
     23 H121         3.0960     2.2980    -0.0420 ha         1 JKY       0.132500
@<TRIPOS>BOND
     1     1    11 ar  
     2     1    12 1   
     3     1    13 ar  
     4     2     9 ar  
     5     2    13 ar  
     6     2    14 1   
     7     3     4 1   
     8     3    15 1   
     9     3    16 1   
    10     3    17 1   
    11     4     5 2   
    12     4     6 2   
    13     4     7 1   
    14     7     8 1   
    15     7    18 1   
    16     8     9 1   
    17     8    19 1   
    18     8    20 1   
    19     9    10 ar  
    20    10    11 ar  
    21    10    21 1   
    22    11    22 1   
    23    13    23 1   
@<TRIPOS>SUBSTRUCTURE
     1 JKY         1 TEMP              0 ****  ****    0 ROOT
