@<TRIPOS>MOLECULE
JKY
   23    23     1     0     0
SMALL
abcg2


@<TRIPOS>ATOM
      1 C10          3.2980    -0.0430     0.0070 ca         1 JKY       0.128000
      2 C13          1.4660     1.4140     0.4830 ca         1 JKY      -0.082000
      3 C01         -4.0850     1.1960     0.2990 c3         1 JKY      -0.388100
      4 S02         -3.2460    -0.3330    -0.0440 s6         1 JKY       1.194100
      5 O03         -3.3430    -1.1740     1.1400 o          1 JKY      -0.526500
      6 O04         -3.7240    -0.8380    -1.3220 o          1 JKY      -0.526500
      7 N05         -1.6530     0.0240    -0.2600 n7         1 JKY      -0.874300
      8 C06         -0.8570     0.5270     0.8550 c3         1 JKY       0.253100
      9 C07          0.6030     0.3290     0.5580 ca         1 JKY      -0.101300
     10 C08          1.1130    -0.9500     0.3470 ca         1 JKY      -0.082000
     11 C09          2.4560    -1.1460     0.0740 ca         1 JKY      -0.105500
     12 CL11         4.9810    -0.2790    -0.3350 cl         1 JKY      -0.199000
     13 C12          2.8170     1.2380     0.2090 ca         1 JKY      -0.105500
     14 H131         1.0880     2.4170     0.6380 ha         1 JKY       0.122500
     15 H011        -5.1400     0.9750     0.4540 h1         1 JKY       0.101367
     16 H012        -3.6720     1.6490     1.1980 h1         1 JKY       0.101367
     17 H013        -3.9670     1.8670    -0.5490 h1         1 JKY       0.101367
     18 H051        -1.4850     0.5040    -1.1380 hn         1 JKY       0.485000
     19 H062        -1.0540     1.5840     1.0560 h1         1 JKY       0.058200
     20 H061        -1.1320    -0.0310     1.7510 h1         1 JKY       0.058200
     21 H081         0.4540    -1.8080     0.3970 ha         1 JKY       0.122500
     22 H091         2.8420    -2.1430    -0.0850 ha         1 JKY       0.132500
     23 H121         3.4780     2.0920     0.1510 ha         1 JKY       0.132500
@<TRIPOS>BOND
     1     1    11 ar  
     2     1    12 1   
     3     1    13 ar  
     4     2     9 ar  
     5     2    13 ar  
     6     2    14 1   
     7     3     4 1   
     8     3    15 1   
     9     3    16 1   
    10     3    17 1   
    11     4     5 2   
    12     4     6 2   
    13     4     7 1   
    14     7     8 1   
    15     7    18 1   
    16     8     9 1   
    17     8    19 1   
    18     8    20 1   
    19     9    10 ar  
    20    10    11 ar  
    21    10    21 1   
    22    11    22 1   
    23    13    23 1   
@<TRIPOS>SUBSTRUCTURE
     1 JKY         1 TEMP              0 ****  ****    0 ROOT
