@<TRIPOS>MOLECULE
JKZ
   22    23     1     0     0
SMALL
No Charge or Current Charge


@<TRIPOS>ATOM
      1 F1          -2.8530    -0.8900    -0.0520 f          1 JKZ      -0.108667
      2 C2          -2.0050     0.1620     0.0240 c3         1 JKZ       0.351200
      3 F3          -2.3030     0.9730    -1.0180 f          1 JKZ      -0.108667
      4 F4          -2.3160     0.8300     1.1580 f          1 JKZ      -0.108667
      5 C5          -0.5440    -0.2750     0.0090 cc         1 JKZ      -0.072200
      6 C6           0.5390     0.6850    -0.0390 cc         1 JKZ      -0.186200
      7 C7           1.8370     0.3030    -0.0560 cd         1 JKZ       0.061400
      8 N8           2.2020    -1.0160    -0.0270 ns         1 JKZ      -0.345100
      9 C9           1.2940    -2.0450     0.0260 c          1 JKZ       0.552200
     10 C10         -0.1260    -1.6060     0.0430 cd         1 JKZ      -0.270200
     11 O12          1.6400    -3.2150     0.0550 o          1 JKZ      -0.545000
     12 C14          2.7200     1.5190    -0.1370 c5         1 JKZ      -0.052200
     13 C17          1.7660     2.7200     0.2260 c5         1 JKZ      -0.075400
     14 C20          0.3320     2.1680    -0.0790 c5         1 JKZ      -0.015200
     15 HN8          3.1770    -1.2880    -0.0450 hn         1 JKZ       0.331500
     16 H10         -0.8290    -2.4290     0.0850 ha         1 JKZ       0.226000
     17 H14          3.5760     1.4640     0.5460 hc         1 JKZ       0.065700
     18 H14A         3.1290     1.6360    -1.1470 hc         1 JKZ       0.065700
     19 H17          1.8570     2.9680     1.2900 hc         1 JKZ       0.054700
     20 H17A         1.9980     3.6320    -0.3370 hc         1 JKZ       0.054700
     21 H20         -0.0130     2.4870    -1.0690 hc         1 JKZ       0.063200
     22 H20A        -0.3970     2.5230     0.6580 hc         1 JKZ       0.063200
@<TRIPOS>BOND
     1     1     2 1   
     2     2     3 1   
     3     2     4 1   
     4     2     5 1   
     5     5     6 1   
     6     5    10 2   
     7     6     7 2   
     8     6    14 1   
     9     7     8 1   
    10     7    12 1   
    11     8     9 1   
    12     8    15 1   
    13     9    10 1   
    14     9    11 2   
    15    10    16 1   
    16    12    13 1   
    17    12    17 1   
    18    12    18 1   
    19    13    14 1   
    20    13    19 1   
    21    13    20 1   
    22    14    21 1   
    23    14    22 1   
@<TRIPOS>SUBSTRUCTURE
     1 JKZ         1 TEMP              0 ****  ****    0 ROOT
