@<TRIPOS>MOLECULE
JKZ
   22    23     1     0     0
SMALL
bcc


@<TRIPOS>ATOM
      1 F1          -2.7840    -0.9650    -0.0160 f          1 JKZ      -0.229967
      2 C2          -1.9640     0.0850     0.0430 c3         1 JKZ       0.715100
      3 F3          -2.2730     0.8860    -0.9840 f          1 JKZ      -0.229967
      4 F4          -2.2580     0.7530     1.1650 f          1 JKZ      -0.229967
      5 C5          -0.5130    -0.2980     0.0110 cc         1 JKZ      -0.072200
      6 C6           0.4610     0.7270    -0.0210 cc         1 JKZ      -0.186200
      7 C7           1.7680     0.3480    -0.0420 cd         1 JKZ       0.061400
      8 N8           2.1340    -0.9480    -0.0250 ns         1 JKZ      -0.412100
      9 C9           1.2450    -2.0060     0.0180 c          1 JKZ       0.694700
     10 C10         -0.1430    -1.6080     0.0360 cd         1 JKZ      -0.220200
     11 O12          1.6450    -3.1650     0.0380 o          1 JKZ      -0.620500
     12 C14          2.7050     1.5050    -0.1260 c5         1 JKZ      -0.052200
     13 C17          1.7850     2.6860     0.2280 c5         1 JKZ      -0.075400
     14 C20          0.3530     2.2270    -0.1090 c5         1 JKZ      -0.015200
     15 HN8          3.1200    -1.1810    -0.0380 hn         1 JKZ       0.331500
     16 H10         -0.8680    -2.4080     0.0700 ha         1 JKZ       0.176000
     17 H14          3.5570     1.4100     0.5500 hc         1 JKZ       0.065700
     18 H14A         3.1060     1.5820    -1.1410 hc         1 JKZ       0.065700
     19 H17          1.8580     2.8870     1.2970 hc         1 JKZ       0.054700
     20 H17A         2.0630     3.5980    -0.2980 hc         1 JKZ       0.054700
     21 H20          0.0650     2.5340    -1.1180 hc         1 JKZ       0.063200
     22 H20A        -0.3790     2.6570     0.5760 hc         1 JKZ       0.063200
@<TRIPOS>BOND
     1     1     2 1   
     2     2     3 1   
     3     2     4 1   
     4     2     5 1   
     5     5     6 1   
     6     5    10 2   
     7     6     7 2   
     8     6    14 1   
     9     7     8 1   
    10     7    12 1   
    11     8     9 1   
    12     8    15 1   
    13     9    10 1   
    14     9    11 2   
    15    10    16 1   
    16    12    13 1   
    17    12    17 1   
    18    12    18 1   
    19    13    14 1   
    20    13    19 1   
    21    13    20 1   
    22    14    21 1   
    23    14    22 1   
@<TRIPOS>SUBSTRUCTURE
     1 JKZ         1 TEMP              0 ****  ****    0 ROOT
