@<TRIPOS>MOLECULE
JL1
   27    28     1     0     0
SMALL
No Charge or Current Charge


@<TRIPOS>ATOM
      1 C10          2.4360     2.7250     0.4680 ca         1 JL1      -0.205000
      2 C13          2.3160    -1.0500     0.7140 c          1 JL1       0.717600
      3 C17         -2.8670    -0.1010     0.9070 ca         1 JL1      -0.133000
      4 C02         -3.9680    -0.1040     0.0310 ca         1 JL1      -0.081300
      5 C03         -3.7530    -0.2910    -1.3470 ca         1 JL1      -0.133000
      6 C04         -2.4510    -0.4750    -1.8440 ca         1 JL1      -0.056500
      7 C05         -1.3530    -0.4680    -0.9670 ca         1 JL1      -0.139000
      8 S06          0.3000    -0.7100    -1.6210 ss         1 JL1      -0.053300
      9 C07          1.1840     0.6170    -0.7890 ca         1 JL1       0.465300
     10 N08          0.9360     1.8780    -1.2280 nb         1 JL1      -0.714000
     11 C09          1.5550     2.9040    -0.6080 ca         1 JL1       0.317900
     12 C11          2.7010     1.4250     0.9250 ca         1 JL1      -0.055000
     13 C12          2.0660     0.3500     0.2750 ca         1 JL1      -0.170600
     14 O14          1.9950    -1.3530     1.8530 o          1 JL1      -0.702500
     15 O15          2.9190    -1.7910    -0.0450 o          1 JL1      -0.702500
     16 C16         -1.5640    -0.2840     0.4130 ca         1 JL1      -0.056500
     17 H101         2.9070     3.5840     0.9370 ha         1 JL1       0.098000
     18 H171        -3.0190     0.0430     1.9750 ha         1 JL1       0.095000
     19 H011        -5.6390     1.1620     0.5850 hc         1 JL1       0.031033
     20 H012        -6.1190    -0.4200    -0.0510 hc         1 JL1       0.031033
     21 H013        -5.4750    -0.2880     1.5900 hc         1 JL1       0.031033
     22 H031        -4.5950    -0.2950    -2.0350 ha         1 JL1       0.095000
     23 H041        -2.2960    -0.6200    -2.9110 ha         1 JL1       0.119000
     24 H091         1.3330     3.9020    -0.9850 h4         1 JL1      -0.010900
     25 H111         3.3830     1.2530     1.7560 ha         1 JL1       0.133000
     26 H161        -0.7250    -0.2870     1.1050 ha         1 JL1       0.119000
     27 C01         -5.3770     0.0980     0.5680 c3         1 JL1      -0.039800
@<TRIPOS>BOND
     1     1    11 ar  
     2     1    12 ar  
     3     1    17 1   
     4     2    13 1   
     5     2    14 1   
     6     2    15 1   
     7     3     4 ar  
     8     3    16 ar  
     9     3    18 1   
    10     4     5 ar  
    11     4    27 1   
    12     5     6 ar  
    13     5    22 1   
    14     6     7 ar  
    15     6    23 1   
    16     7     8 1   
    17     7    16 ar  
    18     8     9 1   
    19     9    10 ar  
    20     9    13 ar  
    21    10    11 ar  
    22    11    24 1   
    23    12    13 ar  
    24    12    25 1   
    25    16    26 1   
    26    19    27 1   
    27    20    27 1   
    28    21    27 1   
@<TRIPOS>SUBSTRUCTURE
     1 JL1         1 TEMP              0 ****  ****    0 ROOT
