@<TRIPOS>MOLECULE
JL1
   27    28     1     0     0
SMALL
abcg2


@<TRIPOS>ATOM
      1 C10          2.3510     2.6820    -0.0100 ca         1 JL1      -0.205000
      2 C13          3.3460    -0.9810     0.0150 c          1 JL1       0.717600
      3 C17         -3.5370    -0.1940     1.1610 ca         1 JL1      -0.133000
      4 C02         -4.1720     0.0740    -0.0490 ca         1 JL1      -0.081300
      5 C03         -3.4300    -0.0520    -1.2230 ca         1 JL1      -0.133000
      6 C04         -2.0960    -0.4290    -1.1890 ca         1 JL1      -0.056500
      7 C05         -1.4690    -0.6820     0.0260 ca         1 JL1      -0.139000
      8 S06          0.2030    -1.2800     0.0690 ss         1 JL1      -0.053300
      9 C07          1.0940     0.2630     0.0440 ca         1 JL1       0.465300
     10 N08          0.3650     1.3660     0.0520 nb         1 JL1      -0.714000
     11 C09          0.9760     2.5430     0.0260 ca         1 JL1       0.317900
     12 C11          3.1090     1.5220    -0.0160 ca         1 JL1      -0.055000
     13 C12          2.4980     0.2750     0.0130 ca         1 JL1      -0.170600
     14 O14          2.7200    -2.0560     0.0980 o          1 JL1      -0.702500
     15 O15          4.5770    -0.8340    -0.0640 o          1 JL1      -0.702500
     16 C16         -2.2000    -0.5680     1.2010 ca         1 JL1      -0.056500
     17 H101         2.8100     3.6610    -0.0330 ha         1 JL1       0.098000
     18 H171        -4.0940    -0.1110     2.0870 ha         1 JL1       0.095000
     19 H011        -5.6890     1.5930    -0.1010 hc         1 JL1       0.031033
     20 H012        -6.1140     0.1350    -0.9820 hc         1 JL1       0.031033
     21 H013        -6.1580     0.1480     0.7820 hc         1 JL1       0.031033
     22 H031        -3.9030     0.1420    -2.1780 ha         1 JL1       0.095000
     23 H041        -1.5400    -0.5290    -2.1130 ha         1 JL1       0.119000
     24 H091         0.3310     3.4160     0.0350 h4         1 JL1      -0.010900
     25 H111         4.1890     1.5710    -0.0430 ha         1 JL1       0.133000
     26 H161        -1.7280    -0.7740     2.1530 ha         1 JL1       0.119000
     27 C01         -5.6090     0.5040    -0.0890 c3         1 JL1      -0.039800
@<TRIPOS>BOND
     1     1    11 ar  
     2     1    12 ar  
     3     1    17 1   
     4     2    13 1   
     5     2    14 1   
     6     2    15 1   
     7     3     4 ar  
     8     3    16 ar  
     9     3    18 1   
    10     4     5 ar  
    11     4    27 1   
    12     5     6 ar  
    13     5    22 1   
    14     6     7 ar  
    15     6    23 1   
    16     7     8 1   
    17     7    16 ar  
    18     8     9 1   
    19     9    10 ar  
    20     9    13 ar  
    21    10    11 ar  
    22    11    24 1   
    23    12    13 ar  
    24    12    25 1   
    25    16    26 1   
    26    19    27 1   
    27    20    27 1   
    28    21    27 1   
@<TRIPOS>SUBSTRUCTURE
     1 JL1         1 TEMP              0 ****  ****    0 ROOT
