@<TRIPOS>MOLECULE
JL2
   55    58     1     0     0
SMALL
No Charge or Current Charge


@<TRIPOS>ATOM
      1 C4           2.9740    -0.4260     0.1060 ca         1 JL2       0.392000
      2 C14         -3.3270    -0.2680    -1.7940 ca         1 JL2      -0.092000
      3 C5           3.8060     0.6690    -0.1400 ca         1 JL2      -0.277500
      4 C6           5.2100     0.5450    -0.0670 ca         1 JL2       0.185600
      5 C11         -3.4550     2.6250     0.3330 cc         1 JL2      -0.158100
      6 C7           0.6690     0.6840     0.2600 ca         1 JL2       0.403900
      7 C8          -1.5150     1.3360     0.1330 ca         1 JL2       0.186500
      8 C9          -1.1620     2.5380     0.6950 ca         1 JL2      -0.240800
      9 C10          0.1710     2.7910     1.0420 ca         1 JL2       0.197900
     10 C12         -2.3640     3.3330     0.8150 cd         1 JL2      -0.191200
     11 C13         -3.6700     0.3620    -0.5820 ca         1 JL2       0.016800
     12 N1           1.5900    -0.3280     0.0270 nu         1 JL2      -0.928900
     13 N2          -0.5980     0.3760    -0.0920 nb         1 JL2      -0.263000
     14 C3           3.5280    -1.6700     0.3970 ca         1 JL2      -0.277500
     15 N3           1.1010     1.8390     0.8190 nb         1 JL2      -0.246000
     16 C1           5.7840    -0.7240     0.2520 ca         1 JL2      -0.006900
     17 C2           4.9250    -1.8260     0.4770 ca         1 JL2       0.185600
     18 N4          -2.8880     1.4050    -0.0850 na         1 JL2      -0.107200
     19 C15         -4.1190    -1.3150    -2.2960 ca         1 JL2      -0.097000
     20 C16         -5.2570    -1.7370    -1.5900 ca         1 JL2      -0.106000
     21 C17         -5.6100    -1.1160    -0.3770 ca         1 JL2      -0.076300
     22 C18         -4.8140    -0.0660     0.1210 ca         1 JL2      -0.120000
     23 C19         -6.8470    -1.5680     0.3880 c3         1 JL2      -0.026100
     24 C20         -8.0900    -0.7260     0.0220 c3         1 JL2      -0.016300
     25 C21         -9.2970    -1.1430     0.7470 c1         1 JL2       0.294900
     26 N5         -10.2400    -1.4940     1.3340 n1         1 JL2      -0.457000
     27 O1           6.0170     1.6440    -0.3090 os         1 JL2      -0.324100
     28 C22          5.5000     2.9510    -0.6170 c3         1 JL2       0.145900
     29 O2           7.1540    -0.9750     0.3560 os         1 JL2      -0.323100
     30 C23          8.1920     0.0060     0.1780 c3         1 JL2       0.146900
     31 O3           5.4970    -3.0520     0.7770 os         1 JL2      -0.324100
     32 C24          4.7170    -4.2350     1.0250 c3         1 JL2       0.145900
     33 H2           3.3490     1.6120    -0.4090 ha         1 JL2       0.138000
     34 H3          -4.5110     2.8670     0.2550 h4         1 JL2       0.221000
     35 H4           0.4940     3.7290     1.4920 h4         1 JL2       0.026100
     36 H5          -2.4170     4.3390     1.2280 ha         1 JL2       0.213000
     37 H6           1.1350    -1.2200    -0.1590 hn         1 JL2       0.508000
     38 H7           2.8610    -2.5060     0.5720 ha         1 JL2       0.138000
     39 H8          -3.8500    -1.7970    -3.2330 ha         1 JL2       0.121000
     40 H9          -5.8660    -2.5470    -1.9880 ha         1 JL2       0.118000
     41 H10         -5.0820     0.4150     1.0590 ha         1 JL2       0.122000
     42 H11         -7.0510    -2.6270     0.1820 hc         1 JL2       0.061200
     43 H12         -6.6650    -1.4970     1.4680 hc         1 JL2       0.061200
     44 H13         -7.8980     0.3300     0.2410 hc         1 JL2       0.073200
     45 H14         -8.2840    -0.8030    -1.0540 hc         1 JL2       0.073200
     46 H15          6.3240     3.6610    -0.7570 h1         1 JL2       0.041533
     47 H16          4.9100     2.9300    -1.5420 h1         1 JL2       0.041533
     48 H17          4.8670     3.3230     0.1990 h1         1 JL2       0.041533
     49 H18          8.1680     0.4220    -0.8370 h1         1 JL2       0.031033
     50 H19          8.0920     0.8200     0.9060 h1         1 JL2       0.031033
     51 H20          9.1760    -0.4570     0.3260 h1         1 JL2       0.031033
     52 H21          4.0540    -4.0910     1.8880 h1         1 JL2       0.041533
     53 H22          4.1080    -4.4920     0.1490 h1         1 JL2       0.041533
     54 H23          5.3760    -5.0850     1.2420 h1         1 JL2       0.041533
     55 H1          -2.4500     0.0560    -2.3500 ha         1 JL2       0.138000
@<TRIPOS>BOND
     1     1     3 ar  
     2     1    12 1   
     3     1    14 ar  
     4     2    11 ar  
     5     2    19 ar  
     6     2    55 1   
     7     3     4 ar  
     8     3    33 1   
     9     4    16 ar  
    10     4    27 1   
    11     5    10 2   
    12     5    18 1   
    13     5    34 1   
    14     6    12 1   
    15     6    13 ar  
    16     6    15 ar  
    17     7     8 ar  
    18     7    13 ar  
    19     7    18 1   
    20     8     9 ar  
    21     8    10 1   
    22     9    15 ar  
    23     9    35 1   
    24    10    36 1   
    25    11    18 1   
    26    11    22 ar  
    27    12    37 1   
    28    14    17 ar  
    29    14    38 1   
    30    16    17 ar  
    31    16    29 1   
    32    17    31 1   
    33    19    20 ar  
    34    19    39 1   
    35    20    21 ar  
    36    20    40 1   
    37    21    22 ar  
    38    21    23 1   
    39    22    41 1   
    40    23    24 1   
    41    23    42 1   
    42    23    43 1   
    43    24    25 1   
    44    24    44 1   
    45    24    45 1   
    46    25    26 3   
    47    27    28 1   
    48    28    46 1   
    49    28    47 1   
    50    28    48 1   
    51    29    30 1   
    52    30    49 1   
    53    30    50 1   
    54    30    51 1   
    55    31    32 1   
    56    32    52 1   
    57    32    53 1   
    58    32    54 1   
@<TRIPOS>SUBSTRUCTURE
     1 JL2         1 TEMP              0 ****  ****    0 ROOT
