@<TRIPOS>MOLECULE
JL2
   55    58     1     0     0
SMALL
bcc


@<TRIPOS>ATOM
      1 C4           2.9500    -0.2070    -0.1480 ca         1 JL2       0.253600
      2 C14         -3.1910    -0.8800    -1.3880 ca         1 JL2      -0.110000
      3 C5           3.7510     0.9280    -0.0480 ca         1 JL2      -0.295500
      4 C6           5.1360     0.7800     0.0200 ca         1 JL2       0.185600
      5 C11         -3.3880     2.5880    -0.3180 cc         1 JL2      -0.108100
      6 C7           0.6590     0.8400    -0.2110 ca         1 JL2       0.929900
      7 C8          -1.4850     1.4270    -0.3110 ca         1 JL2       0.514800
      8 C9          -1.1720     2.7950    -0.1790 ca         1 JL2      -0.371400
      9 C10          0.1810     3.0680    -0.0720 ca         1 JL2       0.526200
     10 C12         -2.4080     3.5160    -0.1890 cd         1 JL2      -0.141200
     11 C13         -3.5820     0.1170    -0.5010 ca         1 JL2       0.016800
     12 N1           1.5640    -0.1830    -0.2260 nu         1 JL2      -0.735300
     13 N2          -0.6080     0.4440    -0.3230 nb         1 JL2      -0.789000
     14 C3           3.5360    -1.4780    -0.1820 ca         1 JL2      -0.295500
     15 N3           1.0860     2.1020    -0.0900 nb         1 JL2      -0.772000
     16 C1           5.7320    -0.4800    -0.0230 ca         1 JL2      -0.006900
     17 C2           4.9170    -1.6110    -0.1140 ca         1 JL2       0.185600
     18 N4          -2.8410     1.3120    -0.3980 na         1 JL2      -0.107200
     19 C15         -3.9420    -2.0420    -1.4710 ca         1 JL2      -0.115000
     20 C16         -5.0800    -2.2060    -0.6950 ca         1 JL2      -0.124000
     21 C17         -5.4790    -1.2080     0.1880 ca         1 JL2      -0.076300
     22 C18         -4.7150    -0.0500     0.2860 ca         1 JL2      -0.138000
     23 C19         -6.7270    -1.3590     1.0120 c3         1 JL2      -0.026100
     24 C20         -7.9090    -0.6560     0.3270 c3         1 JL2      -0.016300
     25 C21         -9.1340    -0.7750     1.1010 c1         1 JL2       0.205700
     26 N5         -10.0970    -0.8780     1.7220 n1         1 JL2      -0.367800
     27 O1           5.9860     1.8170     0.1220 os         1 JL2      -0.300900
     28 C22          5.4550     3.1260     0.1660 c3         1 JL2       0.122700
     29 O2           7.0870    -0.6080     0.0070 os         1 JL2      -0.299900
     30 C23          7.6320    -0.7370     1.3120 c3         1 JL2       0.123700
     31 O3           5.5600    -2.7910    -0.1370 os         1 JL2      -0.300900
     32 C24          4.7980    -3.9740    -0.2640 c3         1 JL2       0.122700
     33 H2           3.2910     1.9010    -0.0220 ha         1 JL2       0.156000
     34 H3          -4.4550     2.7200    -0.3870 h4         1 JL2       0.171000
     35 H4           0.5520     4.0820     0.0330 h4         1 JL2       0.026100
     36 H5          -2.5490     4.5820    -0.1220 ha         1 JL2       0.163000
     37 H6           1.1250    -1.0860    -0.3190 hn         1 JL2       0.452800
     38 H7           2.8980    -2.3490    -0.2580 ha         1 JL2       0.156000
     39 H8          -3.6400    -2.8220    -2.1570 ha         1 JL2       0.139000
     40 H9          -5.6610    -3.1180    -0.7720 ha         1 JL2       0.136000
     41 H10         -4.9990     0.7220     0.9920 ha         1 JL2       0.140000
     42 H11         -6.9650    -2.4150     1.1450 hc         1 JL2       0.061200
     43 H12         -6.5810    -0.9330     2.0050 hc         1 JL2       0.061200
     44 H13         -7.6980     0.4060     0.1870 hc         1 JL2       0.073200
     45 H14         -8.0900    -1.0820    -0.6620 hc         1 JL2       0.073200
     46 H15          6.3030     3.7980     0.2680 h1         1 JL2       0.041533
     47 H16          4.9140     3.3790    -0.7500 h1         1 JL2       0.041533
     48 H17          4.7880     3.2700     1.0200 h1         1 JL2       0.041533
     49 H18          7.4390     0.1480     1.9230 h1         1 JL2       0.031033
     50 H19          7.2390    -1.6140     1.8330 h1         1 JL2       0.031033
     51 H20          8.7100    -0.8540     1.2020 h1         1 JL2       0.031033
     52 H21          4.1090    -4.1090     0.5730 h1         1 JL2       0.041533
     53 H22          4.2290    -3.9950    -1.1970 h1         1 JL2       0.041533
     54 H23          5.5080    -4.7980    -0.2680 h1         1 JL2       0.041533
     55 H1          -2.3170    -0.7530    -2.0100 ha         1 JL2       0.156000
@<TRIPOS>BOND
     1     1     3 ar  
     2     1    12 1   
     3     1    14 ar  
     4     2    11 ar  
     5     2    19 ar  
     6     2    55 1   
     7     3     4 ar  
     8     3    33 1   
     9     4    16 ar  
    10     4    27 1   
    11     5    10 2   
    12     5    18 1   
    13     5    34 1   
    14     6    12 1   
    15     6    13 ar  
    16     6    15 ar  
    17     7     8 ar  
    18     7    13 ar  
    19     7    18 1   
    20     8     9 ar  
    21     8    10 1   
    22     9    15 ar  
    23     9    35 1   
    24    10    36 1   
    25    11    18 1   
    26    11    22 ar  
    27    12    37 1   
    28    14    17 ar  
    29    14    38 1   
    30    16    17 ar  
    31    16    29 1   
    32    17    31 1   
    33    19    20 ar  
    34    19    39 1   
    35    20    21 ar  
    36    20    40 1   
    37    21    22 ar  
    38    21    23 1   
    39    22    41 1   
    40    23    24 1   
    41    23    42 1   
    42    23    43 1   
    43    24    25 1   
    44    24    44 1   
    45    24    45 1   
    46    25    26 3   
    47    27    28 1   
    48    28    46 1   
    49    28    47 1   
    50    28    48 1   
    51    29    30 1   
    52    30    49 1   
    53    30    50 1   
    54    30    51 1   
    55    31    32 1   
    56    32    52 1   
    57    32    53 1   
    58    32    54 1   
@<TRIPOS>SUBSTRUCTURE
     1 JL2         1 TEMP              0 ****  ****    0 ROOT
