@<TRIPOS>MOLECULE
JL4
   20    21     1     0     0
SMALL
bcc


@<TRIPOS>ATOM
      1 C10         -2.5550    -0.3390    -0.0040 cc         1 JL4      -0.050700
      2 C02          3.4760    -0.5400    -0.0210 cc         1 JL4       0.436700
      3 N03          2.2680    -0.9950     0.0020 nd         1 JL4      -0.638000
      4 C04          1.3360     0.0110    -0.0370 cd         1 JL4       0.489800
      5 C05          1.8600     1.2700    -0.0900 cc         1 JL4      -0.218400
      6 S06          3.5690     1.1890    -0.0930 ss         1 JL4      -0.262300
      7 C07         -0.0730    -0.3400    -0.0170 cd         1 JL4      -0.204600
      8 C08         -0.6080    -1.6010     0.0350 cd         1 JL4      -0.108000
      9 C09         -2.0250    -1.5950     0.0410 cd         1 JL4      -0.193000
     10 S11         -1.3160     0.8540    -0.0560 ss         1 JL4      -0.068800
     11 C12         -3.9880     0.1150    -0.0140 c          1 JL4       0.942200
     12 O13         -4.8520    -0.7770     0.0190 o          1 JL4      -0.812800
     13 O14         -4.1520     1.3500    -0.0550 o          1 JL4      -0.812800
     14 H013         5.2970    -1.2450    -0.8960 hc         1 JL4       0.048700
     15 H011         5.3350    -1.1310     0.8580 hc         1 JL4       0.048700
     16 H012         4.4220    -2.4300     0.0810 hc         1 JL4       0.048700
     17 H051         1.3410     2.2150    -0.1280 h4         1 JL4       0.184000
     18 H081        -0.0030    -2.4950     0.0660 ha         1 JL4       0.137000
     19 H091        -2.6320    -2.4880     0.0790 ha         1 JL4       0.155000
     20 C01          4.7020    -1.3820     0.0070 c3         1 JL4      -0.123400
@<TRIPOS>BOND
     1     1     9 2   
     2     1    10 1   
     3     1    11 1   
     4     2     3 2   
     5     2     6 1   
     6     2    20 1   
     7     3     4 1   
     8     4     5 2   
     9     4     7 1   
    10     5     6 1   
    11     5    17 1   
    12     7     8 2   
    13     7    10 1   
    14     8     9 1   
    15     8    18 1   
    16     9    19 1   
    17    11    12 1   
    18    11    13 1   
    19    14    20 1   
    20    15    20 1   
    21    16    20 1   
@<TRIPOS>SUBSTRUCTURE
     1 JL4         1 TEMP              0 ****  ****    0 ROOT
