@<TRIPOS>MOLECULE
JL4
   20    21     1     0     0
SMALL
No Charge or Current Charge


@<TRIPOS>ATOM
      1 C10         -2.5580    -0.2510    -0.0080 cc         1 JL4      -0.195600
      2 C02          3.5040    -0.5500    -0.0220 cc         1 JL4       0.436700
      3 N03          2.2960    -1.0920     0.0040 nd         1 JL4      -0.638000
      4 C04          1.3490    -0.0850    -0.0310 cd         1 JL4       0.424500
      5 C05          1.8350     1.2000    -0.0840 cc         1 JL4      -0.280000
      6 S06          3.5750     1.1950    -0.0910 ss         1 JL4      -0.117400
      7 C07         -0.0660    -0.3190    -0.0160 cd         1 JL4      -0.349500
      8 C08         -0.6460    -1.6120     0.0370 cd         1 JL4      -0.090000
      9 C09         -2.0660    -1.5490     0.0410 cd         1 JL4      -0.175000
     10 S11         -1.2690     0.9650    -0.0620 ss         1 JL4       0.221000
     11 C12         -3.9960     0.1170    -0.0170 c          1 JL4       0.731600
     12 O13         -4.8320    -0.7750     0.0220 o          1 JL4      -0.707500
     13 O14         -4.2980     1.3000    -0.0620 o          1 JL4      -0.707500
     14 H013         5.3490    -1.1940    -0.9090 hc         1 JL4       0.048700
     15 H011         5.3880    -1.0780     0.8610 hc         1 JL4       0.048700
     16 H012         4.5520    -2.4320     0.0790 hc         1 JL4       0.048700
     17 H051         1.2980     2.1370    -0.1190 h4         1 JL4       0.166000
     18 H081        -0.0820    -2.5400     0.0710 ha         1 JL4       0.119000
     19 H091        -2.7000    -2.4300     0.0780 ha         1 JL4       0.137000
     20 C01          4.7670    -1.3600     0.0040 c3         1 JL4      -0.123400
@<TRIPOS>BOND
     1     1     9 2   
     2     1    10 1   
     3     1    11 1   
     4     2     3 2   
     5     2     6 1   
     6     2    20 1   
     7     3     4 1   
     8     4     5 2   
     9     4     7 1   
    10     5     6 1   
    11     5    17 1   
    12     7     8 2   
    13     7    10 1   
    14     8     9 1   
    15     8    18 1   
    16     9    19 1   
    17    11    12 1   
    18    11    13 1   
    19    14    20 1   
    20    15    20 1   
    21    16    20 1   
@<TRIPOS>SUBSTRUCTURE
     1 JL4         1 TEMP              0 ****  ****    0 ROOT
