@<TRIPOS>MOLECULE
JL5
   69    73     1     0     0
SMALL
bcc


@<TRIPOS>ATOM
      1 C4           1.8030     1.0410     1.6940 ca         1 JL5       0.782600
      2 C8           1.5780     2.1580     0.8630 ca         1 JL5      -0.332400
      3 N3           2.8770     3.4700     2.4320 nb         1 JL5      -0.741000
      4 C2           3.0000     2.3540     3.1190 ca         1 JL5       0.701900
      5 N1           2.5020     1.1590     2.8070 nb         1 JL5      -0.790000
      6 C6           0.8910     3.6120    -0.8010 cc         1 JL5      -0.089600
      7 C12          1.2860    -1.1830     2.2640 c3         1 JL5       0.002100
      8 C13          0.9180    -2.4450     1.4900 c3         1 JL5      -0.027100
      9 C14          0.2430    -0.8910     3.3690 c          1 JL5       0.926600
     10 C7           0.8470     2.3240    -0.3620 cd         1 JL5       0.049600
     11 C9           2.1580     3.3400     1.3190 ca         1 JL5       0.497600
     12 C10          0.1720     4.2170    -1.9630 c3         1 JL5      -0.006200
     13 C34         -4.0300     0.3820     0.1430 c6         1 JL5       0.168800
     14 C35         -5.3450    -0.2720     0.5150 c6         1 JL5       0.166800
     15 N36         -5.1320    -1.3340     1.4770 n3         1 JL5      -0.705600
     16 C39         -6.3780    -1.9260     1.9050 c3         1 JL5       0.157100
     17 C37         -4.2160    -2.3250     0.9530 c6         1 JL5       0.166800
     18 C38         -2.8920    -1.6890     0.5770 c6         1 JL5       0.168800
     19 N32         -3.1220    -0.6220    -0.3930 nh         1 JL5      -0.654000
     20 C26         -1.9330    -0.1060    -0.9700 ca         1 JL5      -0.012400
     21 C28         -1.0870     0.8040    -0.3730 ca         1 JL5      -0.056000
     22 C25         -1.6440    -0.5740    -2.2570 ca         1 JL5       0.160100
     23 O30         -2.4770    -1.4300    -2.8540 oh         1 JL5      -0.488100
     24 C27         -0.4890    -0.1340    -2.8880 ca         1 JL5      -0.038600
     25 CL          -0.1440    -0.7770    -4.4620 cl         1 JL5      -0.124400
     26 C24          0.3820     0.7830    -2.2960 ca         1 JL5      -0.014300
     27 C29          1.6330     1.1930    -3.0140 c3         1 JL5      -0.048800
     28 C23          0.0490     1.2760    -1.0300 ca         1 JL5      -0.050800
     29 C22         -1.1950     4.7710    -1.5600 c3         1 JL5      -0.086100
     30 S5           1.8210     4.6490     0.2440 ss         1 JL5      -0.170900
     31 O11          1.3400    -0.1240     1.3120 os         1 JL5      -0.404100
     32 O16         -0.4960     0.0930     3.2180 o          1 JL5      -0.815800
     33 O15          0.2460    -1.7190     4.3000 o          1 JL5      -0.815800
     34 C17          1.8820    -2.7470     0.3780 ca         1 JL5      -0.060300
     35 C18          1.6050    -2.3530    -0.9270 ca         1 JL5      -0.122500
     36 C21          2.5000    -2.6100    -1.9560 ca         1 JL5      -0.137000
     37 C19          3.6970    -3.2630    -1.6910 ca         1 JL5      -0.149000
     38 C20          3.9880    -3.6570    -0.3910 ca         1 JL5      -0.137000
     39 C33          3.0850    -3.4010     0.6330 ca         1 JL5      -0.122500
     40 H1           3.5710     2.4080     4.0390 h5         1 JL5       0.037100
     41 H2           2.2700    -1.3190     2.7210 h1         1 JL5       0.060700
     42 H3           0.8970    -3.2670     2.2070 hc         1 JL5       0.062700
     43 H4          -0.0940    -2.3440     1.0900 hc         1 JL5       0.062700
     44 H5           0.7780     5.0080    -2.4090 hc         1 JL5       0.045700
     45 H6           0.0440     3.4590    -2.7370 hc         1 JL5       0.045700
     46 H9          -6.0040     0.4810     0.9550 h1         1 JL5       0.029450
     47 H10         -5.8380    -0.6400    -0.4020 h1         1 JL5       0.029450
     48 H12         -6.9400    -2.4000     1.0850 h1         1 JL5       0.024367
     49 H13         -6.1880    -2.6890     2.6620 h1         1 JL5       0.024367
     50 H14         -7.0190    -1.1650     2.3510 h1         1 JL5       0.024367
     51 H15         -4.0430    -3.0900     1.7140 h1         1 JL5       0.029450
     52 H16         -4.6300    -2.8370     0.0660 h1         1 JL5       0.029450
     53 H17         -2.3830    -1.3070     1.4730 h1         1 JL5       0.061450
     54 H18         -2.2460    -2.4460     0.1270 h1         1 JL5       0.061450
     55 H19         -1.3040     1.1570     0.6280 ha         1 JL5       0.178000
     56 H20         -3.2330    -1.5120    -2.2390 ho         1 JL5       0.453000
     57 H21          1.4070     1.7410    -3.9310 hc         1 JL5       0.047700
     58 H22          2.2610     1.8240    -2.3910 hc         1 JL5       0.047700
     59 H23          2.2210     0.3210    -3.3050 hc         1 JL5       0.047700
     60 H24         -1.7070     5.1940    -2.4250 hc         1 JL5       0.034033
     61 H25         -1.8240     3.9830    -1.1460 hc         1 JL5       0.034033
     62 H26         -1.0990     5.5550    -0.8090 hc         1 JL5       0.034033
     63 H28          0.6790    -1.8340    -1.1390 ha         1 JL5       0.134500
     64 H29          2.2580    -2.3040    -2.9670 ha         1 JL5       0.119000
     65 H30          4.3970    -3.4670    -2.4920 ha         1 JL5       0.113000
     66 H31          4.9160    -4.1710    -0.1730 ha         1 JL5       0.119000
     67 H32          3.3190    -3.7180     1.6440 ha         1 JL5       0.134500
     68 H7          -4.1990     1.1490    -0.6140 h1         1 JL5       0.061450
     69 H8          -3.6110     0.8760     1.0310 h1         1 JL5       0.061450
@<TRIPOS>BOND
     1     1     2 ar  
     2     1     5 ar  
     3     1    31 1   
     4     2    10 1   
     5     2    11 ar  
     6     3     4 ar  
     7     3    11 ar  
     8     4     5 ar  
     9     4    40 1   
    10     6    10 2   
    11     6    12 1   
    12     6    30 1   
    13     7     8 1   
    14     7     9 1   
    15     7    31 1   
    16     7    41 1   
    17     8    34 1   
    18     8    42 1   
    19     8    43 1   
    20     9    32 1   
    21     9    33 1   
    22    10    28 1   
    23    11    30 1   
    24    12    29 1   
    25    12    44 1   
    26    12    45 1   
    27    13    14 1   
    28    13    19 1   
    29    13    68 1   
    30    13    69 1   
    31    14    15 1   
    32    14    46 1   
    33    14    47 1   
    34    15    16 1   
    35    15    17 1   
    36    16    48 1   
    37    16    49 1   
    38    16    50 1   
    39    17    18 1   
    40    17    51 1   
    41    17    52 1   
    42    18    19 1   
    43    18    53 1   
    44    18    54 1   
    45    19    20 1   
    46    20    21 ar  
    47    20    22 ar  
    48    21    28 ar  
    49    21    55 1   
    50    22    23 1   
    51    22    24 ar  
    52    23    56 1   
    53    24    25 1   
    54    24    26 ar  
    55    26    27 1   
    56    26    28 ar  
    57    27    57 1   
    58    27    58 1   
    59    27    59 1   
    60    29    60 1   
    61    29    61 1   
    62    29    62 1   
    63    34    35 ar  
    64    34    39 ar  
    65    35    36 ar  
    66    35    63 1   
    67    36    37 ar  
    68    36    64 1   
    69    37    38 ar  
    70    37    65 1   
    71    38    39 ar  
    72    38    66 1   
    73    39    67 1   
@<TRIPOS>SUBSTRUCTURE
     1 JL5         1 TEMP              0 ****  ****    0 ROOT
