@<TRIPOS>MOLECULE
JL5
   69    73     1     0     0
SMALL
No Charge or Current Charge


@<TRIPOS>ATOM
      1 C4           1.6480     1.1150     2.0300 ca         1 JL5       0.454300
      2 C8           1.5450     2.2150     1.1520 ca         1 JL5      -0.201800
      3 N3           2.8610     3.5370     2.6520 nb         1 JL5      -0.215000
      4 C2           2.8980     2.4470     3.4460 ca         1 JL5       0.175900
      5 N1           2.3400     1.2440     3.1890 nb         1 JL5      -0.264000
      6 C6           1.1140     3.5780    -0.7590 cc         1 JL5      -0.089600
      7 C12          1.2770    -1.2910     2.4960 c3         1 JL5       0.025300
      8 C13          0.8970    -2.5110     1.6200 c3         1 JL5      -0.027100
      9 C14          0.4410    -1.2700     3.8230 c          1 JL5       0.716000
     10 C7           0.9110     2.3410    -0.1550 cd         1 JL5       0.049600
     11 C9           2.1780     3.3890     1.5050 ca         1 JL5       0.169300
     12 C10          0.5740     4.0860    -2.0760 c3         1 JL5      -0.006200
     13 C34         -4.0210     0.2690     0.0610 c6         1 JL5       0.168800
     14 C35         -5.4040    -0.4060     0.3320 c6         1 JL5       0.166800
     15 N36         -5.3260    -1.4750     1.3710 n3         1 JL5      -0.705600
     16 C39         -6.6400    -2.0870     1.6600 c3         1 JL5       0.157100
     17 C37         -4.2940    -2.4830     0.9870 c6         1 JL5       0.166800
     18 C38         -2.8940    -1.8420     0.7150 c6         1 JL5       0.168800
     19 N32         -2.9530    -0.7260    -0.2830 nh         1 JL5      -0.792400
     20 C26         -1.7360    -0.2590    -0.8490 ca         1 JL5       0.126000
     21 C28         -0.9520     0.7160    -0.2130 ca         1 JL5      -0.038000
     22 C25         -1.3390    -0.7470    -2.1040 ca         1 JL5       0.160100
     23 O30         -2.1630    -1.6590    -2.6970 oh         1 JL5      -0.527100
     24 C27         -0.1590    -0.2830    -2.7190 ca         1 JL5       0.053000
     25 Cl           0.2880    -0.8970    -4.3220 cl         1 JL5      -0.216000
     26 C24          0.6400     0.6920    -2.0730 ca         1 JL5      -0.014300
     27 C29          1.9620     1.1250    -2.7160 c3         1 JL5      -0.048800
     28 C23          0.2180     1.2170    -0.8190 ca         1 JL5      -0.050800
     29 C22         -0.3900     5.2760    -1.9160 c3         1 JL5      -0.086100
     30 S5           2.0550     4.6760     0.2880 ss         1 JL5      -0.170900
     31 O11          1.1070    -0.1010     1.6730 os         1 JL5      -0.427300
     32 O16         -0.3980    -0.3950     3.9980 o          1 JL5      -0.710500
     33 O15          0.6920    -2.1240     4.6650 o          1 JL5      -0.710500
     34 C17          1.5640    -2.5800     0.2410 ca         1 JL5      -0.060300
     35 C18          0.8760    -3.2000    -0.8220 ca         1 JL5      -0.104500
     36 C21          1.4640    -3.2960    -2.0950 ca         1 JL5      -0.119000
     37 C19          2.7460    -2.7700    -2.3190 ca         1 JL5      -0.131000
     38 C20          3.4430    -2.1550    -1.2670 ca         1 JL5      -0.119000
     39 C33          2.8590    -2.0660     0.0080 ca         1 JL5      -0.104500
     40 H1           3.4470     2.5420     4.3810 h5         1 JL5       0.037100
     41 H2           2.3290    -1.4010     2.7880 h1         1 JL5       0.060700
     42 H3           1.1350    -3.4250     2.1760 hc         1 JL5       0.062700
     43 H4          -0.1920    -2.5110     1.5020 hc         1 JL5       0.062700
     44 H5           1.4080     4.3850    -2.7230 hc         1 JL5       0.045700
     45 H6           0.0370     3.2930    -2.6090 hc         1 JL5       0.045700
     46 H9          -6.1190     0.3710     0.6400 h1         1 JL5       0.029450
     47 H10         -5.7770    -0.8280    -0.6130 h1         1 JL5       0.029450
     48 H12         -7.0440    -2.5840     0.7680 h1         1 JL5       0.024367
     49 H13         -6.5510    -2.8330     2.4610 h1         1 JL5       0.024367
     50 H14         -7.3580    -1.3230     1.9850 h1         1 JL5       0.024367
     51 H15         -4.1850    -3.2360     1.7800 h1         1 JL5       0.029450
     52 H16         -4.6130    -3.0170     0.0800 h1         1 JL5       0.029450
     53 H17         -2.4880    -1.4680     1.6670 h1         1 JL5       0.061450
     54 H18         -2.2190    -2.6330     0.3580 h1         1 JL5       0.061450
     55 H19         -1.2740     1.1150     0.7440 ha         1 JL5       0.160000
     56 H20         -2.9030    -1.7290    -2.0460 ho         1 JL5       0.492000
     57 H21          1.7880     1.7740    -3.5820 hc         1 JL5       0.047700
     58 H22          2.6170     1.6590    -2.0200 hc         1 JL5       0.047700
     59 H23          2.5340     0.2560    -3.0620 hc         1 JL5       0.047700
     60 H24         -0.7850     5.5810    -2.8920 hc         1 JL5       0.034033
     61 H25         -1.2360     5.0020    -1.2730 hc         1 JL5       0.034033
     62 H26          0.1200     6.1380    -1.4700 hc         1 JL5       0.034033
     63 H28         -0.1190    -3.6100    -0.6640 ha         1 JL5       0.116500
     64 H29          0.9220    -3.7720    -2.9080 ha         1 JL5       0.101000
     65 H30          3.1970    -2.8380    -3.3060 ha         1 JL5       0.095000
     66 H31          4.4370    -1.7490    -1.4390 ha         1 JL5       0.101000
     67 H32          3.4210    -1.5940     0.8100 ha         1 JL5       0.116500
     68 H7          -4.1420     0.9930    -0.7580 h1         1 JL5       0.061450
     69 H8          -3.7310     0.8360     0.9580 h1         1 JL5       0.061450
@<TRIPOS>BOND
     1     1     2 ar  
     2     1     5 ar  
     3     1    31 1   
     4     2    10 1   
     5     2    11 ar  
     6     3     4 ar  
     7     3    11 ar  
     8     4     5 ar  
     9     4    40 1   
    10     6    10 2   
    11     6    12 1   
    12     6    30 1   
    13     7     8 1   
    14     7     9 1   
    15     7    31 1   
    16     7    41 1   
    17     8    34 1   
    18     8    42 1   
    19     8    43 1   
    20     9    32 1   
    21     9    33 1   
    22    10    28 1   
    23    11    30 1   
    24    12    29 1   
    25    12    44 1   
    26    12    45 1   
    27    13    14 1   
    28    13    19 1   
    29    13    68 1   
    30    13    69 1   
    31    14    15 1   
    32    14    46 1   
    33    14    47 1   
    34    15    16 1   
    35    15    17 1   
    36    16    48 1   
    37    16    49 1   
    38    16    50 1   
    39    17    18 1   
    40    17    51 1   
    41    17    52 1   
    42    18    19 1   
    43    18    53 1   
    44    18    54 1   
    45    19    20 1   
    46    20    21 ar  
    47    20    22 ar  
    48    21    28 ar  
    49    21    55 1   
    50    22    23 1   
    51    22    24 ar  
    52    23    56 1   
    53    24    25 1   
    54    24    26 ar  
    55    26    27 1   
    56    26    28 ar  
    57    27    57 1   
    58    27    58 1   
    59    27    59 1   
    60    29    60 1   
    61    29    61 1   
    62    29    62 1   
    63    34    35 ar  
    64    34    39 ar  
    65    35    36 ar  
    66    35    63 1   
    67    36    37 ar  
    68    36    64 1   
    69    37    38 ar  
    70    37    65 1   
    71    38    39 ar  
    72    38    66 1   
    73    39    67 1   
@<TRIPOS>SUBSTRUCTURE
     1 JL5         1 TEMP              0 ****  ****    0 ROOT
