@<TRIPOS>MOLECULE
JL6
   53    57     1     0     0
SMALL
bcc


@<TRIPOS>ATOM
      1 C5          29.2240     3.0870   -11.5410 ca         1 JL6       0.130300
      2 C6          29.4370     3.0670   -14.3090 ca         1 JL6       0.416600
      3 C7          29.5160     3.0240   -15.7850 cx         1 JL6      -0.190000
      4 C13         23.5940     3.0370   -12.4220 c5         1 JL6       0.221800
      5 C15         22.3960     1.2060   -13.4530 c5         1 JL6       0.234800
      6 C20         30.4410     3.4130   -12.1590 ca         1 JL6      -0.171000
      7 C21         30.0560     2.9890    -9.2170 ca         1 JL6      -0.061000
      8 C22         30.5500     3.3980   -13.5290 ca         1 JL6      -0.175300
      9 C24         31.8620     2.7940    -7.2540 ca         1 JL6       0.612900
     10 C26         31.2490     2.2810    -9.3700 ca         1 JL6       0.391200
     11 C28         20.0590     4.9080   -11.5850 ca         1 JL6       0.454200
     12 C1          28.1510     2.8050   -12.4050 ca         1 JL6       0.290800
     13 N2          28.2850     2.7990   -13.7280 nb         1 JL6      -0.667000
     14 C3          26.7730     2.5130   -11.8980 c          1 JL6       0.588600
     15 N4          22.3030     2.4900   -12.7820 nh         1 JL6      -0.805300
     16 N8          25.8970     2.1600   -12.8420 ns         1 JL6      -0.537900
     17 C9          21.1290     3.0890   -12.4750 ca         1 JL6       0.699200
     18 N10         29.0690     3.0920   -10.1760 nu         1 JL6      -0.642000
     19 C11         28.6750     2.0440   -16.5580 cx         1 JL6      -0.111400
     20 C12         28.3510     3.4950   -16.6150 cx         1 JL6      -0.111400
     21 N14         21.1930     4.2950   -11.9030 nb         1 JL6      -0.752000
     22 C16         24.5230     1.8290   -12.5740 c5         1 JL6       0.093700
     23 O17         26.4810     2.5920   -10.7040 o          1 JL6      -0.641100
     24 N18         30.7510     3.4650    -6.9870 nb         1 JL6      -0.675500
     25 N19         32.1460     2.1960    -8.3990 nb         1 JL6      -0.675500
     26 C23         23.8860     1.0520   -13.7200 c5         1 JL6      -0.108400
     27 C25         29.8620     3.5640    -7.9600 ca         1 JL6       0.391200
     28 C27         19.8920     2.4640   -12.7480 ca         1 JL6      -0.323300
     29 C29         18.7340     3.1280   -12.4110 ca         1 JL6      -0.050000
     30 C30         18.8000     4.3850   -11.8120 ca         1 JL6      -0.314300
     31 H1          30.5030     3.2310   -16.1830 hc         1 JL6       0.084700
     32 H2          23.9030     3.8450   -13.0960 h1         1 JL6       0.067200
     33 H3          23.5930     3.4350   -11.4070 h1         1 JL6       0.067200
     34 H4          22.0200     0.3960   -12.8180 h1         1 JL6       0.046200
     35 H5          21.8140     1.1910   -14.3780 h1         1 JL6       0.046200
     36 H6          31.2990     3.7020   -11.5670 ha         1 JL6       0.150000
     37 H7          31.4900     3.6540   -13.9990 ha         1 JL6       0.146000
     38 H8          32.5990     2.7230    -6.4620 h5         1 JL6       0.054100
     39 H9          31.4800     1.7610   -10.2930 h4         1 JL6       0.031600
     40 H11         26.2280     2.1760   -13.7970 hn         1 JL6       0.346500
     41 H12         28.1040     3.0660    -9.8620 hn         1 JL6       0.492800
     42 H13         29.1250     1.5780   -17.4250 hc         1 JL6       0.076200
     43 H14         28.0210     1.3990   -15.9850 hc         1 JL6       0.076200
     44 H15         27.4750     3.8410   -16.0800 hc         1 JL6       0.076200
     45 H16         28.5740     4.0410   -17.5220 hc         1 JL6       0.076200
     46 H17         24.4770     1.2300   -11.6600 h1         1 JL6       0.082700
     47 H18         24.1990     0.0100   -13.7570 hc         1 JL6       0.059700
     48 H19         24.1480     1.5190   -14.6740 hc         1 JL6       0.059700
     49 H20         28.9480     4.1120    -7.7490 h4         1 JL6       0.031600
     50 H21         19.8480     1.4860   -13.2050 ha         1 JL6       0.136000
     51 H22         17.7760     2.6650   -12.6110 ha         1 JL6       0.130000
     52 H23         17.9110     4.9330   -11.5330 ha         1 JL6       0.141000
     53 H10         20.1660     5.8840   -11.1210 h4         1 JL6       0.013100
@<TRIPOS>BOND
     1     1     6 ar  
     2     1    12 ar  
     3     1    18 1   
     4     2     3 1   
     5     2     8 ar  
     6     2    13 ar  
     7     3    19 1   
     8     3    20 1   
     9     3    31 1   
    10     4    15 1   
    11     4    22 1   
    12     4    32 1   
    13     4    33 1   
    14     5    15 1   
    15     5    26 1   
    16     5    34 1   
    17     5    35 1   
    18     6     8 ar  
    19     6    36 1   
    20     7    10 ar  
    21     7    18 1   
    22     7    27 ar  
    23     8    37 1   
    24     9    24 ar  
    25     9    25 ar  
    26     9    38 1   
    27    10    25 ar  
    28    10    39 1   
    29    11    21 ar  
    30    11    30 ar  
    31    11    53 1   
    32    12    13 ar  
    33    12    14 1   
    34    14    16 1   
    35    14    23 2   
    36    15    17 1   
    37    16    22 1   
    38    16    40 1   
    39    17    21 ar  
    40    17    28 ar  
    41    18    41 1   
    42    19    20 1   
    43    19    42 1   
    44    19    43 1   
    45    20    44 1   
    46    20    45 1   
    47    22    26 1   
    48    22    46 1   
    49    24    27 ar  
    50    26    47 1   
    51    26    48 1   
    52    27    49 1   
    53    28    29 ar  
    54    28    50 1   
    55    29    30 ar  
    56    29    51 1   
    57    30    52 1   
@<TRIPOS>SUBSTRUCTURE
     1 JL6         1 TEMP              0 ****  ****    0 ROOT
