@<TRIPOS>MOLECULE
JL6
   53    57     1     0     0
SMALL
No Charge or Current Charge


@<TRIPOS>ATOM
      1 C5          29.2000     3.0880   -11.6530 ca         1 JL6       0.334000
      2 C6          29.4670     3.1020   -14.4350 ca         1 JL6       0.351300
      3 C7          29.5870     3.0920   -15.9410 cx         1 JL6      -0.190000
      4 C13         23.6890     2.8050   -12.2600 c5         1 JL6       0.221800
      5 C15         22.3210     1.0830   -13.3860 c5         1 JL6       0.234800
      6 C20         30.4100     3.5160   -12.2310 ca         1 JL6      -0.153000
      7 C21         29.9580     3.0390    -9.1620 ca         1 JL6       0.208000
      8 C22         30.5440     3.5170   -13.6310 ca         1 JL6      -0.092000
      9 C24         31.6130     2.9410    -7.0270 ca         1 JL6       0.086900
     10 C26         31.2840     2.5560    -9.2670 ca         1 JL6       0.062900
     11 C28         20.2800     5.0520   -11.4760 ca         1 JL6       0.388900
     12 C1          28.1360     2.7150   -12.5380 ca         1 JL6       0.225500
     13 N2          28.2840     2.7160   -13.9050 nb         1 JL6      -0.667000
     14 C3          26.7650     2.3090   -11.9790 c          1 JL6       0.521600
     15 N4          22.3130     2.3720   -12.6450 nh         1 JL6      -0.805300
     16 N8          25.8560     1.8880   -12.9360 ns         1 JL6      -0.470900
     17 C9          21.1470     3.0940   -12.3410 ca         1 JL6       0.633900
     18 N10         29.0590     3.0770   -10.2480 nu         1 JL6      -0.974000
     19 C11         28.9010     2.0580   -16.8120 cx         1 JL6      -0.111400
     20 C12         28.4460     3.4970   -16.8540 cx         1 JL6      -0.111400
     21 N14         21.3580     4.3040   -11.7930 nb         1 JL6      -0.752000
     22 C16         24.5000     1.4990   -12.5160 c5         1 JL6       0.093700
     23 O17         26.4650     2.3580   -10.7870 o          1 JL6      -0.641100
     24 N18         30.3640     3.4020    -6.8060 nb         1 JL6      -0.149500
     25 N19         32.1150     2.5100    -8.2030 nb         1 JL6      -0.149500
     26 C23         23.8120     0.9600   -13.7930 c5         1 JL6      -0.108400
     27 C25         29.5400     3.4440    -7.8750 ca         1 JL6       0.062900
     28 C27         19.8580     2.5870   -12.5890 ca         1 JL6      -0.240000
     29 C29         18.7370     3.3630   -12.2600 ca         1 JL6      -0.032000
     30 C30         18.9620     4.6230   -11.6920 ca         1 JL6      -0.231000
     31 H1          30.5800     3.3950   -16.2640 hc         1 JL6       0.084700
     32 H2          24.0320     3.6330   -12.8950 h1         1 JL6       0.067200
     33 H3          23.7620     3.1160   -11.2080 h1         1 JL6       0.067200
     34 H4          22.0120     0.2520   -12.7360 h1         1 JL6       0.046200
     35 H5          21.6690     1.0990   -14.2710 h1         1 JL6       0.046200
     36 H6          31.2320     3.8630   -11.6150 ha         1 JL6       0.132000
     37 H7          31.4740     3.8410   -14.0900 ha         1 JL6       0.128000
     38 H8          32.2810     2.9060    -6.1680 h5         1 JL6       0.054100
     39 H9          31.6860     2.1770   -10.2040 h4         1 JL6       0.031600
     40 H11         26.1880     1.8910   -13.8950 hn         1 JL6       0.346500
     41 H12         28.0680     2.9630    -9.9760 hn         1 JL6       0.548000
     42 H13         29.4490     1.6740   -17.6690 hc         1 JL6       0.076200
     43 H14         28.2430     1.3340   -16.3360 hc         1 JL6       0.076200
     44 H15         27.4850     3.7360   -16.4040 hc         1 JL6       0.076200
     45 H16         28.6890     4.0800   -17.7390 hc         1 JL6       0.076200
     46 H17         24.4600     0.7940   -11.6730 h1         1 JL6       0.082700
     47 H18         24.0980    -0.0700   -14.0320 hc         1 JL6       0.059700
     48 H19         24.0220     1.5790   -14.6740 hc         1 JL6       0.059700
     49 H20         28.5310     3.8120    -7.6960 h4         1 JL6       0.031600
     50 H21         19.7200     1.6040   -13.0250 ha         1 JL6       0.118000
     51 H22         17.7270     2.9970   -12.4400 ha         1 JL6       0.112000
     52 H23         18.1290     5.2660   -11.4180 ha         1 JL6       0.123000
     53 H10         20.4800     6.0280   -11.0350 h4         1 JL6       0.013100
@<TRIPOS>BOND
     1     1     6 ar  
     2     1    12 ar  
     3     1    18 1   
     4     2     3 1   
     5     2     8 ar  
     6     2    13 ar  
     7     3    19 1   
     8     3    20 1   
     9     3    31 1   
    10     4    15 1   
    11     4    22 1   
    12     4    32 1   
    13     4    33 1   
    14     5    15 1   
    15     5    26 1   
    16     5    34 1   
    17     5    35 1   
    18     6     8 ar  
    19     6    36 1   
    20     7    10 ar  
    21     7    18 1   
    22     7    27 ar  
    23     8    37 1   
    24     9    24 ar  
    25     9    25 ar  
    26     9    38 1   
    27    10    25 ar  
    28    10    39 1   
    29    11    21 ar  
    30    11    30 ar  
    31    11    53 1   
    32    12    13 ar  
    33    12    14 1   
    34    14    16 1   
    35    14    23 2   
    36    15    17 1   
    37    16    22 1   
    38    16    40 1   
    39    17    21 ar  
    40    17    28 ar  
    41    18    41 1   
    42    19    20 1   
    43    19    42 1   
    44    19    43 1   
    45    20    44 1   
    46    20    45 1   
    47    22    26 1   
    48    22    46 1   
    49    24    27 ar  
    50    26    47 1   
    51    26    48 1   
    52    27    49 1   
    53    28    29 ar  
    54    28    50 1   
    55    29    30 ar  
    56    29    51 1   
    57    30    52 1   
@<TRIPOS>SUBSTRUCTURE
     1 JL6         1 TEMP              0 ****  ****    0 ROOT
