@<TRIPOS>MOLECULE
JL7
   23    24     1     0     0
SMALL
No Charge or Current Charge


@<TRIPOS>ATOM
      1 C10         -0.9310    -1.3570     0.0150 ca         1 JL7      -0.105500
      2 C13         -2.0140     1.2290    -0.0050 ca         1 JL7      -0.070000
      3 C15         -4.4040     0.3140     0.0020 c3         1 JL7       0.355300
      4 O01          5.9180     0.5710     0.0220 o          1 JL7      -0.697000
      5 O03          4.6370     2.2840     0.0230 o          1 JL7      -0.697000
      6 C04          3.5780     0.1530     0.0160 cc         1 JL7       0.241500
      7 C05          3.7250    -1.2190     0.0130 cd         1 JL7      -0.215000
      8 S06          2.1700    -2.0290     0.0070 ss         1 JL7      -0.165400
      9 C07          1.4190    -0.4310     0.0090 cd         1 JL7       0.429900
     10 N08          2.2630     0.5940     0.0130 nc         1 JL7      -0.580000
     11 C09         -0.0550    -0.2470     0.0050 ca         1 JL7      -0.054500
     12 C11         -2.3250    -1.1760     0.0120 ca         1 JL7      -0.070000
     13 C12         -2.8830     0.1180    -0.0060 ca         1 JL7      -0.217300
     14 C14         -0.6210     1.0480    -0.0030 ca         1 JL7      -0.105500
     15 F16         -4.7800     1.4560    -0.6170 f          1 JL7      -0.122000
     16 F17         -5.0550    -0.6940    -0.6230 f          1 JL7      -0.122000
     17 F18         -4.8840     0.3720     1.2640 f          1 JL7      -0.122000
     18 H101        -0.5440    -2.3730     0.0270 ha         1 JL7       0.139500
     19 H131        -2.4150     2.2410    -0.0050 ha         1 JL7       0.119000
     20 H051         4.6480    -1.7860     0.0140 h4         1 JL7       0.167000
     21 H111        -2.9700    -2.0530     0.0270 ha         1 JL7       0.119000
     22 H141         0.0190     1.9280    -0.0050 ha         1 JL7       0.139500
     23 C02          4.7960     1.0670     0.0210 c          1 JL7       0.630500
@<TRIPOS>BOND
     1     1    11 ar  
     2     1    12 ar  
     3     1    18 1   
     4     2    13 ar  
     5     2    14 ar  
     6     2    19 1   
     7     3    13 1   
     8     3    15 1   
     9     3    16 1   
    10     3    17 1   
    11     4    23 1   
    12     5    23 1   
    13     6     7 2   
    14     6    10 1   
    15     6    23 1   
    16     7     8 1   
    17     7    20 1   
    18     8     9 1   
    19     9    10 2   
    20     9    11 1   
    21    11    14 ar  
    22    12    13 ar  
    23    12    21 1   
    24    14    22 1   
@<TRIPOS>SUBSTRUCTURE
     1 JL7         1 TEMP              0 ****  ****    0 ROOT
