@<TRIPOS>MOLECULE
JL7
   23    24     1     0     0
SMALL
bcc


@<TRIPOS>ATOM
      1 C10         -0.9290    -1.3530     0.0220 ca         1 JL7      -0.123500
      2 C13         -1.9670     1.2170    -0.0320 ca         1 JL7      -0.088000
      3 C15         -4.3060     0.3250     0.0120 c3         1 JL7       0.719200
      4 O01          5.8220     0.5920     0.0110 o          1 JL7      -0.802300
      5 O03          4.3920     2.3090     0.0670 o          1 JL7      -0.802300
      6 C04          3.5300     0.1250     0.0210 cc         1 JL7       0.306800
      7 C05          3.6760    -1.2310     0.0070 cd         1 JL7      -0.153400
      8 S06          2.1500    -1.9940    -0.0030 ss         1 JL7      -0.310300
      9 C07          1.3930    -0.4330     0.0120 cd         1 JL7       0.429900
     10 N08          2.2350     0.5510     0.0240 nc         1 JL7      -0.580000
     11 C09         -0.0600    -0.2630     0.0060 ca         1 JL7      -0.054500
     12 C11         -2.3000    -1.1640     0.0100 ca         1 JL7      -0.088000
     13 C12         -2.8240     0.1220    -0.0210 ca         1 JL7      -0.217300
     14 C14         -0.5980     1.0240    -0.0200 ca         1 JL7      -0.123500
     15 F16         -4.6750     1.4700    -0.5710 f          1 JL7      -0.243300
     16 F17         -4.9650    -0.6620    -0.6060 f          1 JL7      -0.243300
     17 F18         -4.7700     0.3660     1.2710 f          1 JL7      -0.243300
     18 H101        -0.5500    -2.3680     0.0440 ha         1 JL7       0.157500
     19 H131        -2.3520     2.2280    -0.0530 ha         1 JL7       0.137000
     20 H051         4.5880    -1.8050     0.0030 h4         1 JL7       0.185000
     21 H111        -2.9460    -2.0310     0.0210 ha         1 JL7       0.137000
     22 H141         0.0630     1.8800    -0.0330 ha         1 JL7       0.157500
     23 C02          4.6880     1.1040     0.0340 c          1 JL7       0.841100
@<TRIPOS>BOND
     1     1    11 ar  
     2     1    12 ar  
     3     1    18 1   
     4     2    13 ar  
     5     2    14 ar  
     6     2    19 1   
     7     3    13 1   
     8     3    15 1   
     9     3    16 1   
    10     3    17 1   
    11     4    23 1   
    12     5    23 1   
    13     6     7 2   
    14     6    10 1   
    15     6    23 1   
    16     7     8 1   
    17     7    20 1   
    18     8     9 1   
    19     9    10 2   
    20     9    11 1   
    21    11    14 ar  
    22    12    13 ar  
    23    12    21 1   
    24    14    22 1   
@<TRIPOS>SUBSTRUCTURE
     1 JL7         1 TEMP              0 ****  ****    0 ROOT
