@<TRIPOS>MOLECULE
JL8
   52    55     1     0     0
SMALL
bcc


@<TRIPOS>ATOM
      1 C6           3.2460    -0.7520     0.4690 cc         1 JL8      -0.088600
      2 C8           1.8710     1.1030     0.3020 ca         1 JL8      -0.331400
      3 C10          3.8070    -2.1330     0.3720 c3         1 JL8      -0.007200
      4 C13         -2.6040     1.5550    -1.0080 c3         1 JL8      -0.027100
      5 C17         -3.1200     1.0050     0.2900 ca         1 JL8      -0.059300
      6 C21         -4.3830     1.2750     2.3360 ca         1 JL8      -0.137000
      7 C24          0.9170    -1.2370    -0.2800 ca         1 JL8      -0.049800
      8 C28         -0.5920    -3.0700     0.0320 ca         1 JL8      -0.031600
      9 C2           2.1540     3.7400     0.6480 ca         1 JL8       0.703900
     10 C9           3.0590     1.7150     0.6960 ca         1 JL8       0.498600
     11 C18         -3.9340     1.7730     1.1200 ca         1 JL8      -0.123000
     12 C23         -2.7660    -0.2750     0.7090 ca         1 JL8      -0.123000
     13 C27         -0.4590    -2.0200    -2.1110 ca         1 JL8      -0.224000
     14 C29          0.4860    -1.1520    -1.6010 ca         1 JL8      -0.036000
     15 C25          0.3500    -2.1940     0.5710 ca         1 JL8      -0.016300
     16 CL          -1.3300    -4.2720     1.0400 cl         1 JL8      -0.124400
     17 C26         -1.0020    -3.0090    -1.2970 ca         1 JL8       0.138100
     18 O31         -1.9130    -3.8950    -1.7250 oh         1 JL8      -0.487100
     19 C7           1.9880    -0.3240     0.1750 cd         1 JL8       0.048600
     20 C22          4.5830    -2.3500    -0.9270 c3         1 JL8      -0.087100
     21 S5           4.3140     0.5500     0.9140 ss         1 JL8      -0.172900
     22 N3           3.2320     3.0220     0.8810 nb         1 JL8      -0.743000
     23 N1           0.9620     3.2940     0.2620 nb         1 JL8      -0.789000
     24 C4           0.8030     1.9970     0.0820 ca         1 JL8       0.786600
     25 O11         -0.3620     1.5060    -0.2630 os         1 JL8      -0.409100
     26 C12         -1.3330     2.3810    -0.8340 c3         1 JL8       0.004100
     27 C14         -0.8490     2.9420    -2.1930 c          1 JL8       0.927600
     28 O16          0.1980     2.4770    -2.6690 o          1 JL8      -0.815300
     29 O15         -1.6010     3.8050    -2.6820 o          1 JL8      -0.815300
     30 C19         -4.0230    -0.0040     2.7430 ca         1 JL8      -0.150000
     31 C20         -3.2130    -0.7800     1.9220 ca         1 JL8      -0.137000
     32 H1           4.4570    -2.3320     1.2280 hc         1 JL8       0.046200
     33 H2           2.9910    -2.8530     0.4300 hc         1 JL8       0.046200
     34 H3          -2.4110     0.7420    -1.7140 hc         1 JL8       0.064700
     35 H4          -3.3480     2.2070    -1.4670 hc         1 JL8       0.064700
     36 H5          -5.0200     1.8840     2.9650 ha         1 JL8       0.119000
     37 H6           2.2440     4.8120     0.7850 h5         1 JL8       0.036100
     38 H7          -4.2230     2.7720     0.8120 ha         1 JL8       0.134500
     39 H8          -2.1300    -0.8790     0.0760 ha         1 JL8       0.134500
     40 H9          -0.7750    -1.9340    -3.1440 ha         1 JL8       0.139000
     41 H10          0.8920    -0.3800    -2.2420 ha         1 JL8       0.178000
     42 H11         -0.2020    -2.1820     2.6420 hc         1 JL8       0.048700
     43 H12          1.1560    -3.2310     2.2810 hc         1 JL8       0.048700
     44 H13          1.3820    -1.4850     2.3190 hc         1 JL8       0.048700
     45 H14         -2.1280    -3.7320    -2.6510 ho         1 JL8       0.425000
     46 H15          3.9320    -2.2150    -1.7920 hc         1 JL8       0.034033
     47 H16          5.4130    -1.6490    -1.0190 hc         1 JL8       0.034033
     48 H17          4.9900    -3.3600    -0.9640 hc         1 JL8       0.034033
     49 H18         -1.5330     3.2100    -0.1490 h1         1 JL8       0.059700
     50 H20         -4.3740    -0.3940     3.6890 ha         1 JL8       0.113000
     51 H21         -2.9290    -1.7810     2.2230 ha         1 JL8       0.119000
     52 C30          0.6950    -2.2750     2.0280 c3         1 JL8      -0.048800
@<TRIPOS>BOND
     1     1     3 1   
     2     1    19 2   
     3     1    21 1   
     4     2    10 ar  
     5     2    19 1   
     6     2    24 ar  
     7     3    20 1   
     8     3    32 1   
     9     3    33 1   
    10     4     5 1   
    11     4    26 1   
    12     4    34 1   
    13     4    35 1   
    14     5    11 ar  
    15     5    12 ar  
    16     6    11 ar  
    17     6    30 ar  
    18     6    36 1   
    19     7    14 ar  
    20     7    15 ar  
    21     7    19 1   
    22     8    15 ar  
    23     8    16 1   
    24     8    17 ar  
    25     9    22 ar  
    26     9    23 ar  
    27     9    37 1   
    28    10    21 1   
    29    10    22 ar  
    30    11    38 1   
    31    12    31 ar  
    32    12    39 1   
    33    13    14 ar  
    34    13    17 ar  
    35    13    40 1   
    36    14    41 1   
    37    15    52 1   
    38    17    18 1   
    39    18    45 1   
    40    20    46 1   
    41    20    47 1   
    42    20    48 1   
    43    23    24 ar  
    44    24    25 1   
    45    25    26 1   
    46    26    27 1   
    47    26    49 1   
    48    27    28 1   
    49    27    29 1   
    50    30    31 ar  
    51    30    50 1   
    52    31    51 1   
    53    42    52 1   
    54    43    52 1   
    55    44    52 1   
@<TRIPOS>SUBSTRUCTURE
     1 JL8         1 TEMP              0 ****  ****    0 ROOT
