@<TRIPOS>MOLECULE
JL8
   52    55     1     0     0
SMALL
No Charge or Current Charge


@<TRIPOS>ATOM
      1 C6           3.1640    -0.6380     0.6040 cc         1 JL8      -0.088600
      2 C8           1.8970     1.3000     0.0320 ca         1 JL8      -0.200800
      3 C10          3.6110    -2.0730     0.7680 c3         1 JL8      -0.007200
      4 C13         -2.7540     1.5430    -1.0790 c3         1 JL8      -0.027100
      5 C17         -2.9710     0.7120     0.1920 ca         1 JL8      -0.059300
      6 C21         -2.7590     0.3640     2.6060 ca         1 JL8      -0.119000
      7 C24          0.8180    -1.0200    -0.2650 ca         1 JL8      -0.049800
      8 C28         -0.8070    -2.7880     0.2220 ca         1 JL8       0.060000
      9 C2           2.2150     3.9520     0.1640 ca         1 JL8       0.177900
     10 C9           3.0720     1.8670     0.4790 ca         1 JL8       0.170300
     11 C18         -2.5460     1.1570     1.4650 ca         1 JL8      -0.105000
     12 C23         -3.6310    -0.5300     0.0920 ca         1 JL8      -0.105000
     13 C27         -0.6810    -1.8400    -2.0180 ca         1 JL8      -0.206000
     14 C29          0.3480    -0.9860    -1.5930 ca         1 JL8      -0.018000
     15 C25          0.2150    -1.9110     0.6650 ca         1 JL8      -0.016300
     16 Cl          -1.5320    -3.9570     1.3430 cl         1 JL8      -0.216000
     17 C26         -1.2500    -2.7500    -1.1190 ca         1 JL8       0.138100
     18 O31         -2.2330    -3.5920    -1.5600 oh         1 JL8      -0.526100
     19 C7           1.9670    -0.1560     0.0840 cd         1 JL8       0.048600
     20 C22          4.8490    -2.4230    -0.0790 c3         1 JL8      -0.087100
     21 S5           4.2950     0.6880     0.9970 ss         1 JL8      -0.172900
     22 N3           3.2630     3.1950     0.5530 nb         1 JL8      -0.217000
     23 N1           1.0150     3.5060    -0.2650 nb         1 JL8      -0.263000
     24 C4           0.8430     2.1640    -0.3390 ca         1 JL8       0.458300
     25 O11         -0.3740     1.6340    -0.7050 os         1 JL8      -0.432300
     26 C12         -1.5080     2.4660    -1.0790 c3         1 JL8       0.027300
     27 C14         -1.3390     3.1820    -2.4640 c          1 JL8       0.717000
     28 O16         -0.4090     2.8690    -3.1980 o          1 JL8      -0.710000
     29 O15         -2.1340     4.0700    -2.7440 o          1 JL8      -0.710000
     30 C19         -3.4100    -0.8740     2.4910 ca         1 JL8      -0.132000
     31 C20         -3.8500    -1.3180     1.2350 ca         1 JL8      -0.119000
     32 H1           3.8340    -2.2690     1.8240 hc         1 JL8       0.046200
     33 H2           2.8090    -2.7640     0.4860 hc         1 JL8       0.046200
     34 H3          -2.6750     0.8740    -1.9450 hc         1 JL8       0.064700
     35 H4          -3.6430     2.1600    -1.2580 hc         1 JL8       0.064700
     36 H5          -2.4210     0.7120     3.5790 ha         1 JL8       0.101000
     37 H6           2.3460     5.0310     0.2160 h5         1 JL8       0.036100
     38 H7          -2.0460     2.1150     1.5790 ha         1 JL8       0.116500
     39 H8          -3.9720    -0.8890    -0.8760 ha         1 JL8       0.116500
     40 H9          -1.0170    -1.7960    -3.0510 ha         1 JL8       0.121000
     41 H10          0.8030    -0.3020    -2.3070 ha         1 JL8       0.160000
     42 H11         -0.2940    -1.8780     2.7860 hc         1 JL8       0.048700
     43 H12          1.1760    -2.7920     2.4160 hc         1 JL8       0.048700
     44 H13          1.1870    -1.0200     2.4300 hc         1 JL8       0.048700
     45 H14         -2.3830    -3.4230    -2.5140 ho         1 JL8       0.464000
     46 H15          4.6530    -2.2360    -1.1420 hc         1 JL8       0.034033
     47 H16          5.7160    -1.8250     0.2250 hc         1 JL8       0.034033
     48 H17          5.1060    -3.4820     0.0410 hc         1 JL8       0.034033
     49 H18         -1.6650     3.2540    -0.3320 h1         1 JL8       0.059700
     50 H20         -3.5740    -1.4880     3.3740 ha         1 JL8       0.095000
     51 H21         -4.3550    -2.2770     1.1430 ha         1 JL8       0.101000
     52 C30          0.5980    -1.9000     2.1490 c3         1 JL8      -0.048800
@<TRIPOS>BOND
     1     1     3 1   
     2     1    19 2   
     3     1    21 1   
     4     2    10 ar  
     5     2    19 1   
     6     2    24 ar  
     7     3    20 1   
     8     3    32 1   
     9     3    33 1   
    10     4     5 1   
    11     4    26 1   
    12     4    34 1   
    13     4    35 1   
    14     5    11 ar  
    15     5    12 ar  
    16     6    11 ar  
    17     6    30 ar  
    18     6    36 1   
    19     7    14 ar  
    20     7    15 ar  
    21     7    19 1   
    22     8    15 ar  
    23     8    16 1   
    24     8    17 ar  
    25     9    22 ar  
    26     9    23 ar  
    27     9    37 1   
    28    10    21 1   
    29    10    22 ar  
    30    11    38 1   
    31    12    31 ar  
    32    12    39 1   
    33    13    14 ar  
    34    13    17 ar  
    35    13    40 1   
    36    14    41 1   
    37    15    52 1   
    38    17    18 1   
    39    18    45 1   
    40    20    46 1   
    41    20    47 1   
    42    20    48 1   
    43    23    24 ar  
    44    24    25 1   
    45    25    26 1   
    46    26    27 1   
    47    26    49 1   
    48    27    28 1   
    49    27    29 1   
    50    30    31 ar  
    51    30    50 1   
    52    31    51 1   
    53    42    52 1   
    54    43    52 1   
    55    44    52 1   
@<TRIPOS>SUBSTRUCTURE
     1 JL8         1 TEMP              0 ****  ****    0 ROOT
