@<TRIPOS>MOLECULE
JL9
   47    50     1     0     0
SMALL
abcg2


@<TRIPOS>ATOM
      1 CAA         -4.9810    -0.2400    -0.9260 ca         1 JL9      -0.155500
      2 CAB         -6.1190     0.3730    -1.4250 ca         1 JL9       0.332400
      3 NAC         -7.0920     0.8580    -0.6600 nb         1 JL9      -0.662000
      4 CAD         -6.9450     0.7410     0.6540 ca         1 JL9       0.332400
      5 CAE         -5.8430     0.1480     1.2520 ca         1 JL9      -0.155500
      6 CAF         -4.8300    -0.3640     0.4510 ca         1 JL9      -0.051300
      7 CAG         -3.6400    -1.0630     1.0530 c3         1 JL9       0.209100
      8 NAH         -2.4250    -0.8350     0.3030 n3         1 JL9      -0.718600
      9 CAI         -1.3800    -1.7780     0.6520 c6         1 JL9       0.149300
     10 CAJ         -0.1720    -1.5830    -0.2400 c6         1 JL9       0.224800
     11 CAM         -1.9350     0.5180     0.4680 c6         1 JL9       0.149300
     12 CAL         -0.7320     0.7760    -0.4220 c6         1 JL9       0.224800
     13 NAK          0.3040    -0.2100    -0.1680 nh         1 JL9      -0.762600
     14 CAN          1.6290     0.0480    -0.2030 cc         1 JL9       0.740800
     15 NAT          2.4900    -0.9240    -0.0500 nd         1 JL9      -0.735300
     16 CAS          3.8090    -0.6230    -0.0450 cd         1 JL9       0.233400
     17 CAU          4.7180    -1.8020     0.1480 c6         1 JL9      -0.034200
     18 CAV          6.1670    -1.5090    -0.2150 c6         1 JL9      -0.073400
     19 CAW          6.6100    -0.1860     0.3920 c6         1 JL9      -0.076400
     20 CAX          5.7790     0.9640    -0.1620 c6         1 JL9      -0.000200
     21 CAR          4.3120     0.6420    -0.1860 cc         1 JL9      -0.300400
     22 CAP          3.3830     1.7120    -0.3910 c          1 JL9       0.576200
     23 OAQ          3.6650     2.8930    -0.5680 o          1 JL9      -0.562000
     24 NAO          2.0480     1.3270    -0.3870 ns         1 JL9      -0.437400
     25 HAA         -4.2180    -0.6070    -1.5990 ha         1 JL9       0.129000
     26 HAB         -6.2500     0.4770    -2.4970 h4         1 JL9       0.019100
     27 HAD         -7.7410     1.1450     1.2690 h4         1 JL9       0.019100
     28 HAE         -5.7800     0.0930     2.3320 ha         1 JL9       0.129000
     29 HAG1        -3.5400    -0.7740     2.1120 h1         1 JL9       0.046700
     30 HAG2        -3.8450    -2.1380     1.0510 h1         1 JL9       0.046700
     31 HAI1        -1.0750    -1.6830     1.7070 h1         1 JL9       0.047950
     32 HAI2        -1.7510    -2.7950     0.5080 h1         1 JL9       0.047950
     33 HAM1        -2.7140     1.2310     0.1950 h1         1 JL9       0.047950
     34 HAM2        -1.6590     0.7200     1.5160 h1         1 JL9       0.047950
     35 HAJ1         0.6250    -2.2550     0.0630 h1         1 JL9       0.061950
     36 HAJ2        -0.4390    -1.8190    -1.2760 h1         1 JL9       0.061950
     37 HAL1        -1.0320     0.7460    -1.4750 h1         1 JL9       0.061950
     38 HAL2        -0.3870     1.7840    -0.2030 h1         1 JL9       0.061950
     39 HAO          1.3870     2.0730    -0.5500 hn         1 JL9       0.324500
     40 HAU1         4.6490    -2.1100     1.1980 hc         1 JL9       0.061700
     41 HAU2         4.3270    -2.6420    -0.4310 hc         1 JL9       0.061700
     42 HAV1         6.8040    -2.3270     0.1270 hc         1 JL9       0.043700
     43 HAV2         6.2720    -1.4640    -1.3030 hc         1 JL9       0.043700
     44 HAW1         6.4980    -0.2310     1.4800 hc         1 JL9       0.041700
     45 HAW2         7.6680    -0.0060     0.1940 hc         1 JL9       0.041700
     46 HAX1         5.9490     1.8660     0.4330 hc         1 JL9       0.053200
     47 HAX2         6.1210     1.2090    -1.1740 hc         1 JL9       0.053200
@<TRIPOS>BOND
     1     1     2 ar  
     2     1     6 ar  
     3     1    25 1   
     4     2     3 ar  
     5     2    26 1   
     6     3     4 ar  
     7     4     5 ar  
     8     4    27 1   
     9     5     6 ar  
    10     5    28 1   
    11     6     7 1   
    12     7     8 1   
    13     7    29 1   
    14     7    30 1   
    15     8     9 1   
    16     8    11 1   
    17     9    10 1   
    18     9    31 1   
    19     9    32 1   
    20    10    13 1   
    21    10    35 1   
    22    10    36 1   
    23    11    12 1   
    24    11    33 1   
    25    11    34 1   
    26    12    13 1   
    27    12    37 1   
    28    12    38 1   
    29    13    14 1   
    30    14    15 2   
    31    14    24 1   
    32    15    16 1   
    33    16    17 1   
    34    16    21 2   
    35    17    18 1   
    36    17    40 1   
    37    17    41 1   
    38    18    19 1   
    39    18    42 1   
    40    18    43 1   
    41    19    20 1   
    42    19    44 1   
    43    19    45 1   
    44    20    21 1   
    45    20    46 1   
    46    20    47 1   
    47    21    22 1   
    48    22    23 2   
    49    22    24 1   
    50    24    39 1   
@<TRIPOS>SUBSTRUCTURE
     1 JL9         1 TEMP              0 ****  ****    0 ROOT
