@<TRIPOS>MOLECULE
JL9
   47    50     1     0     0
SMALL
No Charge or Current Charge


@<TRIPOS>ATOM
      1 CAA         -5.3250    -0.7090    -1.0670 ca         1 JL9      -0.155500
      2 CAB         -6.3170     0.0150    -1.7510 ca         1 JL9       0.332400
      3 NAC         -6.9630     1.0720    -1.2080 nb         1 JL9      -0.662000
      4 CAD         -6.6250     1.4360     0.0520 ca         1 JL9       0.332400
      5 CAE         -5.6450     0.7670     0.8050 ca         1 JL9      -0.155500
      6 CAF         -4.9730    -0.3340     0.2420 ca         1 JL9      -0.051300
      7 CAG         -3.8970    -1.0910     1.0150 c3         1 JL9       0.209100
      8 NAH         -2.5480    -0.9640     0.4150 n3         1 JL9      -0.718600
      9 CAI         -1.5400    -1.8450     1.0810 c6         1 JL9       0.149300
     10 CAJ         -0.1280    -1.7590     0.4210 c6         1 JL9       0.224800
     11 CAM         -2.0440     0.4450     0.3810 c6         1 JL9       0.149300
     12 CAL         -0.6420     0.5680    -0.2930 c6         1 JL9       0.224800
     13 NAK          0.3710    -0.3490     0.3260 nh         1 JL9      -0.762600
     14 CAN          1.7120    -0.0870     0.2360 cc         1 JL9       0.740800
     15 NAT          2.5560    -1.0450    -0.1060 nd         1 JL9      -0.735300
     16 CAS          3.9080    -0.7020    -0.1690 cd         1 JL9       0.233400
     17 CAU          4.9140    -1.7690    -0.5640 c6         1 JL9      -0.034200
     18 CAV          6.2780    -1.1820    -0.9880 c6         1 JL9      -0.073400
     19 CAW          6.7420    -0.1290     0.0360 c6         1 JL9      -0.076400
     20 CAX          5.7500     1.0540     0.0920 c6         1 JL9      -0.000200
     21 CAR          4.2970     0.5950     0.1480 cc         1 JL9      -0.300400
     22 CAP          3.3270     1.6210     0.5380 c          1 JL9       0.576200
     23 OAQ          3.5910     2.7770     0.8260 o          1 JL9      -0.562000
     24 NAO          2.0690     1.1680     0.5530 ns         1 JL9      -0.437400
     25 HAA         -4.8350    -1.5480    -1.5540 ha         1 JL9       0.129000
     26 HAB         -6.6020    -0.2600    -2.7660 h4         1 JL9       0.019100
     27 HAD         -7.1570     2.2910     0.4690 h4         1 JL9       0.019100
     28 HAE         -5.4150     1.1070     1.8110 ha         1 JL9       0.129000
     29 HAG1        -3.8830    -0.7370     2.0550 h1         1 JL9       0.046700
     30 HAG2        -4.1900    -2.1500     1.0450 h1         1 JL9       0.046700
     31 HAI1        -1.4430    -1.5690     2.1420 h1         1 JL9       0.047950
     32 HAI2        -1.8730    -2.8930     1.0530 h1         1 JL9       0.047950
     33 HAM1        -2.7440     1.0920    -0.1670 h1         1 JL9       0.047950
     34 HAM2        -1.9740     0.8450     1.4040 h1         1 JL9       0.047950
     35 HAJ1         0.5620    -2.3770     1.0130 h1         1 JL9       0.061950
     36 HAJ2        -0.1800    -2.2040    -0.5830 h1         1 JL9       0.061950
     37 HAL1        -0.7480     0.3260    -1.3610 h1         1 JL9       0.061950
     38 HAL2        -0.3260     1.6190    -0.2400 h1         1 JL9       0.061950
     39 HAO          1.3560     1.8110     0.8470 hn         1 JL9       0.324500
     40 HAU1         5.0640    -2.4520     0.2830 hc         1 JL9       0.061700
     41 HAU2         4.5160    -2.3860    -1.3810 hc         1 JL9       0.061700
     42 HAV1         7.0230    -1.9860    -1.0730 hc         1 JL9       0.043700
     43 HAV2         6.1950    -0.7220    -1.9830 hc         1 JL9       0.043700
     44 HAW1         6.8260    -0.5920     1.0300 hc         1 JL9       0.041700
     45 HAW2         7.7450     0.2370    -0.2240 hc         1 JL9       0.041700
     46 HAX1         6.0040     1.6820     0.9570 hc         1 JL9       0.053200
     47 HAX2         5.9020     1.6880    -0.7940 hc         1 JL9       0.053200
@<TRIPOS>BOND
     1     1     2 ar  
     2     1     6 ar  
     3     1    25 1   
     4     2     3 ar  
     5     2    26 1   
     6     3     4 ar  
     7     4     5 ar  
     8     4    27 1   
     9     5     6 ar  
    10     5    28 1   
    11     6     7 1   
    12     7     8 1   
    13     7    29 1   
    14     7    30 1   
    15     8     9 1   
    16     8    11 1   
    17     9    10 1   
    18     9    31 1   
    19     9    32 1   
    20    10    13 1   
    21    10    35 1   
    22    10    36 1   
    23    11    12 1   
    24    11    33 1   
    25    11    34 1   
    26    12    13 1   
    27    12    37 1   
    28    12    38 1   
    29    13    14 1   
    30    14    15 2   
    31    14    24 1   
    32    15    16 1   
    33    16    17 1   
    34    16    21 2   
    35    17    18 1   
    36    17    40 1   
    37    17    41 1   
    38    18    19 1   
    39    18    42 1   
    40    18    43 1   
    41    19    20 1   
    42    19    44 1   
    43    19    45 1   
    44    20    21 1   
    45    20    46 1   
    46    20    47 1   
    47    21    22 1   
    48    22    23 2   
    49    22    24 1   
    50    24    39 1   
@<TRIPOS>SUBSTRUCTURE
     1 JL9         1 TEMP              0 ****  ****    0 ROOT
