@<TRIPOS>MOLECULE
JLA
   29    30     1     0     0
SMALL
No Charge or Current Charge


@<TRIPOS>ATOM
      1 C13         -4.7080    -0.0030    -0.1720 c6         1 JLA      -0.071400
      2 C15         -2.5280     1.3060     0.1070 c6         1 JLA       0.205300
      3 O01          4.6430     0.9600    -0.0560 o          1 JLA      -0.726000
      4 O03          4.5680    -1.0770     0.6180 o          1 JLA      -0.726000
      5 C04          2.5020    -0.0190     0.1660 ca         1 JLA      -0.149600
      6 C05          1.7360    -1.1560     0.5110 ca         1 JLA      -0.067500
      7 C06          0.3330    -1.1260     0.4320 ca         1 JLA      -0.184500
      8 C07         -0.3420     0.0340     0.0100 ca         1 JLA       0.249000
      9 C08          0.4170     1.1700    -0.3320 ca         1 JLA      -0.184500
     10 C09          1.8210     1.1450    -0.2570 ca         1 JLA      -0.067500
     11 N10         -1.7550     0.0410    -0.0600 nh         1 JLA      -0.796400
     12 C11         -2.4580    -0.9870    -0.8810 c6         1 JLA       0.205300
     13 C12         -3.8690    -1.2940    -0.3160 c6         1 JLA      -0.081400
     14 C14         -3.9420     1.0350     0.6810 c6         1 JLA      -0.081400
     15 H132        -4.9200     0.4160    -1.1660 hc         1 JLA       0.029200
     16 H131        -5.6770    -0.2320     0.2900 hc         1 JLA       0.029200
     17 H152        -2.0020     1.9880     0.7910 h1         1 JLA       0.032200
     18 H151        -2.6220     1.8180    -0.8630 h1         1 JLA       0.032200
     19 H051         2.2260    -2.0690     0.8430 ha         1 JLA       0.124000
     20 H061        -0.2320    -2.0100     0.7130 ha         1 JLA       0.086500
     21 H081        -0.0720     2.0770    -0.6720 ha         1 JLA       0.086500
     22 H091         2.3790     2.0380    -0.5320 ha         1 JLA       0.124000
     23 H112        -2.5550    -0.6300    -1.9170 h1         1 JLA       0.032200
     24 H111        -1.8830    -1.9240    -0.9150 h1         1 JLA       0.032200
     25 H122        -3.7720    -1.7850     0.6620 hc         1 JLA       0.038950
     26 H121        -4.3850    -2.0060    -0.9740 hc         1 JLA       0.038950
     27 H141        -4.5090     1.9740     0.7290 hc         1 JLA       0.038950
     28 H142        -3.8530     0.6700     1.7130 hc         1 JLA       0.038950
     29 C02          4.0200    -0.0480     0.2490 c          1 JLA       0.713600
@<TRIPOS>BOND
     1     1    13 1   
     2     1    14 1   
     3     1    15 1   
     4     1    16 1   
     5     2    11 1   
     6     2    14 1   
     7     2    17 1   
     8     2    18 1   
     9     3    29 1   
    10     4    29 1   
    11     5     6 ar  
    12     5    10 ar  
    13     5    29 1   
    14     6     7 ar  
    15     6    19 1   
    16     7     8 ar  
    17     7    20 1   
    18     8     9 ar  
    19     8    11 1   
    20     9    10 ar  
    21     9    21 1   
    22    10    22 1   
    23    11    12 1   
    24    12    13 1   
    25    12    23 1   
    26    12    24 1   
    27    13    25 1   
    28    13    26 1   
    29    14    27 1   
    30    14    28 1   
@<TRIPOS>SUBSTRUCTURE
     1 JLA         1 TEMP              0 ****  ****    0 ROOT
