@<TRIPOS>MOLECULE
JLA
   29    30     1     0     0
SMALL
bcc


@<TRIPOS>ATOM
      1 C13         -4.6580     0.0280    -0.2530 c6         1 JLA      -0.071400
      2 C15         -2.4820     1.2540     0.0700 c6         1 JLA       0.205300
      3 O01          4.5430     1.0860    -0.0140 o          1 JLA      -0.831300
      4 O03          4.5300    -1.1150     0.3270 o          1 JLA      -0.831300
      5 C04          2.4570    -0.0060     0.1300 ca         1 JLA      -0.149600
      6 C05          1.7220    -1.1720     0.3460 ca         1 JLA      -0.085500
      7 C06          0.3400    -1.1730     0.3320 ca         1 JLA      -0.202500
      8 C07         -0.3860     0.0050     0.0870 ca         1 JLA       0.110600
      9 C08          0.3510     1.1740    -0.1360 ca         1 JLA      -0.202500
     10 C09          1.7390     1.1610    -0.1050 ca         1 JLA      -0.085500
     11 N10         -1.7800    -0.0160     0.1080 nh         1 JLA      -0.658000
     12 C11         -2.4400    -1.0470    -0.6860 c6         1 JLA       0.205300
     13 C12         -3.8690    -1.2740    -0.2220 c6         1 JLA      -0.081400
     14 C14         -3.9200     1.0930     0.5460 c6         1 JLA      -0.081400
     15 H132        -4.7740     0.3600    -1.2900 hc         1 JLA       0.029200
     16 H131        -5.6650    -0.1200     0.1430 hc         1 JLA       0.029200
     17 H152        -1.9720     1.9630     0.7230 h1         1 JLA       0.032200
     18 H151        -2.4780     1.6870    -0.9430 h1         1 JLA       0.032200
     19 H051         2.2440    -2.0990     0.5460 ha         1 JLA       0.142000
     20 H061        -0.1840    -2.0970     0.5400 ha         1 JLA       0.104500
     21 H081        -0.1500     2.1080    -0.3540 ha         1 JLA       0.104500
     22 H091         2.2740     2.0840    -0.2850 ha         1 JLA       0.142000
     23 H112        -2.4440    -0.7570    -1.7490 h1         1 JLA       0.032200
     24 H111        -1.8810    -1.9780    -0.6190 h1         1 JLA       0.032200
     25 H122        -3.8560    -1.6750     0.7960 hc         1 JLA       0.038950
     26 H121        -4.3340    -2.0290    -0.8600 hc         1 JLA       0.038950
     27 H141        -4.4240     2.0580     0.4700 hc         1 JLA       0.038950
     28 H142        -3.9140     0.8170     1.6050 hc         1 JLA       0.038950
     29 C02          3.9730    -0.0120     0.1490 c          1 JLA       0.924200
@<TRIPOS>BOND
     1     1    13 1   
     2     1    14 1   
     3     1    15 1   
     4     1    16 1   
     5     2    11 1   
     6     2    14 1   
     7     2    17 1   
     8     2    18 1   
     9     3    29 1   
    10     4    29 1   
    11     5     6 ar  
    12     5    10 ar  
    13     5    29 1   
    14     6     7 ar  
    15     6    19 1   
    16     7     8 ar  
    17     7    20 1   
    18     8     9 ar  
    19     8    11 1   
    20     9    10 ar  
    21     9    21 1   
    22    10    22 1   
    23    11    12 1   
    24    12    13 1   
    25    12    23 1   
    26    12    24 1   
    27    13    25 1   
    28    13    26 1   
    29    14    27 1   
    30    14    28 1   
@<TRIPOS>SUBSTRUCTURE
     1 JLA         1 TEMP              0 ****  ****    0 ROOT
