@<TRIPOS>MOLECULE
JLB
   42    45     1     0     0
SMALL
abcg2


@<TRIPOS>ATOM
      1 C10          0.9780     1.0340    -0.0070 cc         1 JLB       0.056600
      2 C13          1.7220     4.1080     1.7950 c3         1 JLB      -0.087100
      3 C15          3.1430     0.0850     0.0950 ca         1 JLB       0.170300
      4 C17          3.6660    -2.0610    -0.1130 ca         1 JLB       0.174900
      5 C20         -2.6510     0.3430     0.7650 ca         1 JLB      -0.139000
      6 C21         -3.2620     1.1370    -0.2060 ca         1 JLB      -0.044200
      7 C22         -2.5110     1.8930    -1.1310 ca         1 JLB      -0.115800
      8 C24         -3.4500     2.5660    -1.9730 cc         1 JLB      -0.238200
      9 C26         -4.6930     2.2070    -1.5380 cd         1 JLB      -0.188100
     10 N01          2.4070    -2.4380    -0.3150 nb         1 JLB      -0.265000
     11 C02          1.4650    -1.5140    -0.3150 ca         1 JLB       0.457300
     12 O03          0.2230    -1.8240    -0.5890 os         1 JLB      -0.435300
     13 C04         -0.1940    -3.1880    -0.4830 c3         1 JLB       0.024300
     14 C05         -1.6260    -3.2340    -0.9840 c3         1 JLB      -0.071100
     15 C06         -0.0860    -3.6940     0.9730 c          1 JLB       0.716000
     16 O07         -0.3080    -4.9130     1.1050 o          1 JLB      -0.715500
     17 O08          0.1830    -2.8680     1.8600 o          1 JLB      -0.715500
     18 C09          1.7840    -0.1590    -0.0830 ca         1 JLB      -0.201800
     19 C11          1.7450     2.1390     0.2170 cd         1 JLB      -0.089600
     20 C12          1.3250     3.5580     0.4260 c3         1 JLB      -0.007200
     21 S14          3.4470     1.7660     0.3350 ss         1 JLB      -0.186900
     22 N16          4.1050    -0.8360     0.0850 nb         1 JLB      -0.220000
     23 C18         -0.4950     1.0670    -0.1080 ca         1 JLB      -0.051800
     24 C19         -1.2740     0.3170     0.7990 ca         1 JLB      -0.034000
     25 C23         -1.1130     1.8460    -1.0710 ca         1 JLB      -0.058000
     26 N25         -4.5810     1.3510    -0.4790 na         1 JLB      -0.227700
     27 H1           1.3730     5.1340     1.9050 hc         1 JLB       0.032367
     28 H2           1.2830     3.5140     2.5970 hc         1 JLB       0.032367
     29 H3           2.8040     4.1140     1.9350 hc         1 JLB       0.032367
     30 H4           4.4100    -2.8500    -0.1180 h5         1 JLB       0.034100
     31 H7          -5.6640     2.4970    -1.9060 h4         1 JLB       0.197000
     32 H8           0.4370    -3.8120    -1.1210 h1         1 JLB       0.053700
     33 H9          -2.2790    -2.6050    -0.3770 hc         1 JLB       0.031033
     34 H10         -1.6950    -2.9010    -2.0200 hc         1 JLB       0.031033
     35 H11         -1.9930    -4.2580    -0.9370 hc         1 JLB       0.031033
     36 H13          0.2430     3.6180     0.3100 hc         1 JLB       0.047200
     37 H14          1.7510     4.1870    -0.3600 hc         1 JLB       0.047200
     38 H15         -0.7770    -0.3130     1.5250 ha         1 JLB       0.162000
     39 H16         -0.5170     2.4070    -1.7820 ha         1 JLB       0.108000
     40 H17         -5.3560     0.9470     0.0190 hn         1 JLB       0.341000
     41 H5          -3.2340    -0.2410     1.4650 ha         1 JLB       0.118000
     42 H6          -3.2330     3.2290    -2.7950 ha         1 JLB       0.193000
@<TRIPOS>BOND
     1     1    18 1   
     2     1    19 2   
     3     1    23 1   
     4     2    20 1   
     5     2    27 1   
     6     2    28 1   
     7     2    29 1   
     8     3    18 ar  
     9     3    21 1   
    10     3    22 ar  
    11     4    10 ar  
    12     4    22 ar  
    13     4    30 1   
    14     5     6 ar  
    15     5    24 ar  
    16     5    41 1   
    17     6     7 ar  
    18     6    26 1   
    19     7     8 1   
    20     7    25 ar  
    21     8     9 2   
    22     8    42 1   
    23     9    26 1   
    24     9    31 1   
    25    10    11 ar  
    26    11    12 1   
    27    11    18 ar  
    28    12    13 1   
    29    13    14 1   
    30    13    15 1   
    31    13    32 1   
    32    14    33 1   
    33    14    34 1   
    34    14    35 1   
    35    15    16 1   
    36    15    17 1   
    37    19    20 1   
    38    19    21 1   
    39    20    36 1   
    40    20    37 1   
    41    23    24 ar  
    42    23    25 ar  
    43    24    38 1   
    44    25    39 1   
    45    26    40 1   
@<TRIPOS>SUBSTRUCTURE
     1 JLB         1 TEMP              0 ****  ****    0 ROOT
