@<TRIPOS>MOLECULE
JLB
   42    45     1     0     0
SMALL
No Charge or Current Charge


@<TRIPOS>ATOM
      1 C10          1.1480     1.0300    -0.0980 cc         1 JLB       0.056600
      2 C13          0.9640     3.8300     1.7810 c3         1 JLB      -0.087100
      3 C15          3.3100     0.1040    -0.0540 ca         1 JLB       0.170300
      4 C17          3.7910    -2.1070    -0.3000 ca         1 JLB       0.174900
      5 C20         -2.4620     0.5770     0.9710 ca         1 JLB      -0.139000
      6 C21         -3.1040     1.2370    -0.0840 ca         1 JLB      -0.044200
      7 C22         -2.3920     1.8040    -1.1020 ca         1 JLB      -0.115800
      8 C24         -3.3350     2.3840    -2.0070 cc         1 JLB      -0.238200
      9 C26         -4.6000     2.1380    -1.4880 cd         1 JLB      -0.188100
     10 N01          2.5000    -2.4790    -0.4500 nb         1 JLB      -0.265000
     11 C02          1.5660    -1.4990    -0.3870 ca         1 JLB       0.457300
     12 O03          0.2290    -1.7870    -0.5720 os         1 JLB      -0.435300
     13 C04         -0.2900    -3.1400    -0.4500 c3         1 JLB       0.024300
     14 C05         -1.7650    -3.0740    -0.9030 c3         1 JLB      -0.071100
     15 C06         -0.1640    -3.7440     0.9950 c          1 JLB       0.716000
     16 O07         -0.3460    -4.9480     1.1250 o          1 JLB      -0.715500
     17 O08          0.1600    -3.0190     1.9280 o          1 JLB      -0.715500
     18 C09          1.9640    -0.1640    -0.1870 ca         1 JLB      -0.201800
     19 C11          1.9140     2.1710     0.1150 cd         1 JLB      -0.089600
     20 C12          1.4370     3.5870     0.3350 c3         1 JLB      -0.007200
     21 S14          3.6690     1.8250     0.1770 ss         1 JLB      -0.186900
     22 N16          4.2530    -0.8520    -0.1050 nb         1 JLB      -0.220000
     23 C18         -0.3110     1.1080    -0.0980 ca         1 JLB      -0.051800
     24 C19         -1.0510     0.5150     0.9570 ca         1 JLB      -0.034000
     25 C23         -0.9920     1.7610    -1.1500 ca         1 JLB      -0.058000
     26 N25         -4.4650     1.4150    -0.2760 na         1 JLB      -0.227700
     27 H1           0.6460     4.8710     1.9090 hc         1 JLB       0.032367
     28 H2           0.1160     3.1790     2.0260 hc         1 JLB       0.032367
     29 H3           1.7740     3.6260     2.4910 hc         1 JLB       0.032367
     30 H4           4.5360    -2.8990    -0.3480 h5         1 JLB       0.034100
     31 H7          -5.5740     2.4180    -1.8840 h4         1 JLB       0.197000
     32 H8           0.2450    -3.8130    -1.1320 h1         1 JLB       0.053700
     33 H9          -2.3490    -2.4370    -0.2280 hc         1 JLB       0.031033
     34 H10         -1.8390    -2.6660    -1.9180 hc         1 JLB       0.031033
     35 H11         -2.2120    -4.0740    -0.9050 hc         1 JLB       0.031033
     36 H13          0.6230     3.8360    -0.3550 hc         1 JLB       0.047200
     37 H14          2.2470     4.2910     0.1100 hc         1 JLB       0.047200
     38 H15         -0.5260     0.0030     1.7610 ha         1 JLB       0.162000
     39 H16         -0.4480     2.2140    -1.9750 ha         1 JLB       0.108000
     40 H17         -5.2130     1.0920     0.3310 hn         1 JLB       0.341000
     41 H5          -3.0300     0.1220     1.7780 ha         1 JLB       0.118000
     42 H6          -3.1200     2.9180    -2.9300 ha         1 JLB       0.193000
@<TRIPOS>BOND
     1     1    18 1   
     2     1    19 2   
     3     1    23 1   
     4     2    20 1   
     5     2    27 1   
     6     2    28 1   
     7     2    29 1   
     8     3    18 ar  
     9     3    21 1   
    10     3    22 ar  
    11     4    10 ar  
    12     4    22 ar  
    13     4    30 1   
    14     5     6 ar  
    15     5    24 ar  
    16     5    41 1   
    17     6     7 ar  
    18     6    26 1   
    19     7     8 1   
    20     7    25 ar  
    21     8     9 2   
    22     8    42 1   
    23     9    26 1   
    24     9    31 1   
    25    10    11 ar  
    26    11    12 1   
    27    11    18 ar  
    28    12    13 1   
    29    13    14 1   
    30    13    15 1   
    31    13    32 1   
    32    14    33 1   
    33    14    34 1   
    34    14    35 1   
    35    15    16 1   
    36    15    17 1   
    37    19    20 1   
    38    19    21 1   
    39    20    36 1   
    40    20    37 1   
    41    23    24 ar  
    42    23    25 ar  
    43    24    38 1   
    44    25    39 1   
    45    26    40 1   
@<TRIPOS>SUBSTRUCTURE
     1 JLB         1 TEMP              0 ****  ****    0 ROOT
