@<TRIPOS>MOLECULE
JLC
   38    41     1     0     0
SMALL
No Charge or Current Charge


@<TRIPOS>ATOM
      1 C4           2.6600    -6.8130   -28.3290 c          1 JLC       0.624700
      2 C14          5.3250    -9.4810   -29.0190 cc         1 JLC       0.369500
      3 C5           3.5920    -7.8040   -28.9710 cc         1 JLC      -0.080600
      4 C6           3.6060    -8.0520   -30.3620 cd         1 JLC      -0.190000
      5 C11          4.4360    -9.5670   -35.2930 ca         1 JLC      -0.091000
      6 C7           4.4940    -9.0040   -31.0170 cd         1 JLC       0.442500
      7 C8           4.4440    -9.2060   -32.4830 ca         1 JLC      -0.160500
      8 C9           4.6910   -10.4790   -33.0500 ca         1 JLC      -0.075500
      9 C10          4.6770   -10.6580   -34.4440 ca         1 JLC      -0.117500
     10 C12          4.2160    -8.2930   -34.7450 ca         1 JLC      -0.117500
     11 C13          4.2280    -8.1110   -33.3510 ca         1 JLC      -0.075500
     12 N1          -0.5210    -3.7400   -28.0220 na         1 JLC       0.136800
     13 N2           1.8120    -6.1510   -29.2100 ns         1 JLC      -0.361100
     14 C3           0.8410    -5.1840   -28.9410 cc         1 JLC      -0.078400
     15 N3           5.3680    -9.7490   -30.3470 nc         1 JLC      -0.636000
     16 C2           0.4950    -4.6580   -27.7320 cd         1 JLC      -0.169000
     17 O1           2.6310    -6.5860   -27.1250 o          1 JLC      -0.544100
     18 C15          6.0940   -10.0650   -28.0710 cd         1 JLC      -0.363600
     19 C16          5.7180    -9.4860   -26.8310 cd         1 JLC       0.379500
     20 N4           4.7580    -8.5740   -26.9450 nc         1 JLC      -0.546100
     21 N5           4.5430    -8.5960   -28.3060 na         1 JLC       0.128900
     22 C17          0.0150    -4.5550   -29.8900 cc         1 JLC       0.211900
     23 N6          -0.8210    -3.6770   -29.3770 nd         1 JLC      -0.507800
     24 H1           2.9180    -7.5330   -31.0150 ha         1 JLC       0.145000
     25 H2           4.4280    -9.7060   -36.3720 ha         1 JLC       0.116000
     26 H3           4.8810   -11.3390   -32.4110 ha         1 JLC       0.122500
     27 H4           4.8570   -11.6440   -34.8660 ha         1 JLC       0.117000
     28 H5           4.0440    -7.4430   -35.4020 ha         1 JLC       0.117000
     29 H6           4.0800    -7.1090   -32.9540 ha         1 JLC       0.122500
     30 H7           1.9310    -6.4230   -30.1750 hn         1 JLC       0.331500
     31 H8          -2.3090    -3.1340   -27.0880 h1         1 JLC       0.058700
     32 H9          -0.8570    -3.0900   -26.0430 h1         1 JLC       0.058700
     33 H10         -1.0880    -1.8430   -27.3040 h1         1 JLC       0.058700
     34 H11          0.8600    -4.8400   -26.7280 h4         1 JLC       0.181000
     35 H12          6.8480   -10.8250   -28.2290 ha         1 JLC       0.230000
     36 H13          6.1190    -9.7070   -25.8500 h4         1 JLC       0.050800
     37 H14          0.0050    -4.7210   -30.9600 h4         1 JLC       0.038100
     38 C1          -1.2380    -2.8990   -27.0540 c3         1 JLC       0.073900
@<TRIPOS>BOND
     1     1     3 1   
     2     1    13 1   
     3     1    17 2   
     4     2    15 1   
     5     2    18 2   
     6     2    21 1   
     7     3     4 2   
     8     3    21 1   
     9     4     6 1   
    10     4    24 1   
    11     5     9 ar  
    12     5    10 ar  
    13     5    25 1   
    14     6     7 1   
    15     6    15 2   
    16     7     8 ar  
    17     7    11 ar  
    18     8     9 ar  
    19     8    26 1   
    20     9    27 1   
    21    10    11 ar  
    22    10    28 1   
    23    11    29 1   
    24    12    16 1   
    25    12    23 1   
    26    12    38 1   
    27    13    14 1   
    28    13    30 1   
    29    14    16 2   
    30    14    22 1   
    31    16    34 1   
    32    18    19 1   
    33    18    35 1   
    34    19    20 2   
    35    19    36 1   
    36    20    21 1   
    37    22    23 2   
    38    22    37 1   
    39    31    38 1   
    40    32    38 1   
    41    33    38 1   
@<TRIPOS>SUBSTRUCTURE
     1 JLC         1 TEMP              0 ****  ****    0 ROOT
