@<TRIPOS>MOLECULE
JLC
   38    41     1     0     0
SMALL
bcc


@<TRIPOS>ATOM
      1 C4           2.4140    -6.9740   -28.5760 c          1 JLC       0.691700
      2 C14          5.3490    -9.2480   -29.0960 cc         1 JLC       0.369500
      3 C5           3.4580    -7.8080   -29.2620 cc         1 JLC      -0.029900
      4 C6           3.4100    -8.1150   -30.5840 cd         1 JLC      -0.273300
      5 C11          4.2600   -10.0860   -35.2640 ca         1 JLC      -0.109000
      6 C7           4.3670    -9.0180   -31.1350 cd         1 JLC       0.507800
      7 C8           4.3220    -9.3800   -32.5640 ca         1 JLC      -0.160500
      8 C9           4.8480   -10.6010   -32.9890 ca         1 JLC      -0.093500
      9 C10          4.8120   -10.9530   -34.3280 ca         1 JLC      -0.135500
     10 C12          3.7420    -8.8670   -34.8520 ca         1 JLC      -0.135500
     11 C13          3.7690    -8.5160   -33.5100 ca         1 JLC      -0.093500
     12 N1          -0.3360    -3.7200   -27.8200 na         1 JLC       0.115400
     13 N2           2.2320    -5.7740   -29.1470 ns         1 JLC      -0.428100
     14 C3           1.2830    -4.8340   -28.7550 cc         1 JLC      -0.143700
     15 N3           5.2960    -9.5660   -30.3950 nc         1 JLC      -0.636000
     16 C2           0.3100    -4.9020   -27.7770 cd         1 JLC      -0.136300
     17 O1           1.7870    -7.4020   -27.6280 o          1 JLC      -0.544100
     18 C15          6.2100    -9.6120   -28.0750 cd         1 JLC      -0.313600
     19 C16          5.7420    -8.9100   -26.9640 cd         1 JLC       0.379500
     20 N4           4.6800    -8.1600   -27.2270 nc         1 JLC      -0.546100
     21 N5           4.4410    -8.3710   -28.5180 na         1 JLC       0.078200
     22 C17          1.1280    -3.5590   -29.3250 cc         1 JLC       0.277200
     23 N6           0.1410    -2.9030   -28.7440 nd         1 JLC      -0.507800
     24 H1           2.6110    -7.7110   -31.1890 ha         1 JLC       0.163000
     25 H2           4.2340   -10.3610   -36.3110 ha         1 JLC       0.134000
     26 H3           5.2750   -11.2810   -32.2640 ha         1 JLC       0.140500
     27 H4           5.2130   -11.9070   -34.6430 ha         1 JLC       0.135000
     28 H5           3.3190    -8.1820   -35.5750 ha         1 JLC       0.135000
     29 H6           3.3750    -7.5530   -33.2130 ha         1 JLC       0.140500
     30 H7           2.8490    -5.5010   -29.8990 hn         1 JLC       0.331500
     31 H8          -2.3570    -3.2190   -27.6130 h1         1 JLC       0.058700
     32 H9          -1.6310    -4.0770   -26.2450 h1         1 JLC       0.058700
     33 H10         -1.2480    -2.3710   -26.5180 h1         1 JLC       0.058700
     34 H11          0.0400    -5.6710   -27.0770 h4         1 JLC       0.199000
     35 H12          7.0510   -10.2800   -28.1400 ha         1 JLC       0.180000
     36 H13          6.1460    -8.9190   -25.9620 h4         1 JLC       0.050800
     37 H14          1.7000    -3.1140   -30.1250 h4         1 JLC       0.038100
     38 C1          -1.4590    -3.3200   -27.0050 c3         1 JLC       0.044600
@<TRIPOS>BOND
     1     1     3 1   
     2     1    13 1   
     3     1    17 2   
     4     2    15 1   
     5     2    18 2   
     6     2    21 1   
     7     3     4 2   
     8     3    21 1   
     9     4     6 1   
    10     4    24 1   
    11     5     9 ar  
    12     5    10 ar  
    13     5    25 1   
    14     6     7 1   
    15     6    15 2   
    16     7     8 ar  
    17     7    11 ar  
    18     8     9 ar  
    19     8    26 1   
    20     9    27 1   
    21    10    11 ar  
    22    10    28 1   
    23    11    29 1   
    24    12    16 1   
    25    12    23 1   
    26    12    38 1   
    27    13    14 1   
    28    13    30 1   
    29    14    16 2   
    30    14    22 1   
    31    16    34 1   
    32    18    19 1   
    33    18    35 1   
    34    19    20 2   
    35    19    36 1   
    36    20    21 1   
    37    22    23 2   
    38    22    37 1   
    39    31    38 1   
    40    32    38 1   
    41    33    38 1   
@<TRIPOS>SUBSTRUCTURE
     1 JLC         1 TEMP              0 ****  ****    0 ROOT
