@<TRIPOS>MOLECULE
JLD
   34    35     1     0     0
SMALL
No Charge or Current Charge


@<TRIPOS>ATOM
      1 C10          0.9700    -0.3590     0.2980 ca         1 JLD      -0.093300
      2 C13          3.7570    -0.2400    -0.1020 ca         1 JLD       0.168000
      3 C15          2.8970    -0.3340    -1.2060 ca         1 JLD      -0.151000
      4 N02         -3.3640    -0.6940    -0.3810 n3         1 JLD      -0.716600
      5 C03         -2.6660    -1.8280     0.2800 c6         1 JLD       0.164800
      6 C04         -1.1400    -1.7650     0.0400 c6         1 JLD      -0.068400
      7 C05         -0.5500    -0.4170     0.5280 c6         1 JLD      -0.014400
      8 C06         -1.3140     0.7680    -0.1400 c6         1 JLD      -0.058700
      9 C07         -0.7920     2.1460     0.3650 c3         1 JLD       0.162600
     10 O08         -1.4250     3.2450    -0.3030 oh         1 JLD      -0.662000
     11 C09         -2.8450     0.6200     0.0950 c6         1 JLD       0.171800
     12 C11          1.8450    -0.2640     1.4000 ca         1 JLD      -0.082000
     13 C12          3.2360    -0.2050     1.2000 ca         1 JLD      -0.151000
     14 F14          5.0930    -0.1820    -0.2930 f          1 JLD      -0.181000
     15 C16          1.5060    -0.3940    -1.0080 ca         1 JLD      -0.082000
     16 H151         3.3080    -0.3610    -2.2110 ha         1 JLD       0.131500
     17 H013        -5.1460    -0.7360     0.7910 h1         1 JLD       0.030367
     18 H011        -5.3240     0.0210    -0.8100 h1         1 JLD       0.030367
     19 H012        -5.1940    -1.7450    -0.6750 h1         1 JLD       0.030367
     20 H032        -3.0440    -2.7860    -0.1080 h1         1 JLD       0.030200
     21 H042        -0.6520    -2.5990     0.5630 hc         1 JLD       0.051200
     22 H041        -0.9380    -1.9070    -1.0300 hc         1 JLD       0.051200
     23 H051        -0.7350    -0.3570     1.6100 hc         1 JLD       0.047700
     24 H061        -1.1340     0.7460    -1.2230 hc         1 JLD       0.073700
     25 H072        -0.9660     2.2120     1.4470 h1         1 JLD       0.021700
     26 H071         0.2920     2.1970     0.2020 h1         1 JLD       0.021700
     27 H081        -1.0210     4.0680     0.0530 ho         1 JLD       0.443000
     28 H092        -3.3660     1.4340    -0.4300 h1         1 JLD       0.038700
     29 H091        -3.0560     0.7440     1.1680 h1         1 JLD       0.038700
     30 H111         1.4510    -0.2360     2.4140 ha         1 JLD       0.118000
     31 H121         3.9080    -0.1320     2.0510 ha         1 JLD       0.131500
     32 H161         0.8490    -0.4660    -1.8710 ha         1 JLD       0.118000
     33 H031        -2.8610    -1.8170     1.3630 h1         1 JLD       0.030200
     34 C01         -4.8340    -0.7930    -0.2610 c3         1 JLD       0.155100
@<TRIPOS>BOND
     1     1     7 1   
     2     1    12 ar  
     3     1    15 ar  
     4     2     3 ar  
     5     2    13 ar  
     6     2    14 1   
     7     3    15 ar  
     8     3    16 1   
     9     4     5 1   
    10     4    11 1   
    11     4    34 1   
    12     5     6 1   
    13     5    20 1   
    14     5    33 1   
    15     6     7 1   
    16     6    21 1   
    17     6    22 1   
    18     7     8 1   
    19     7    23 1   
    20     8     9 1   
    21     8    11 1   
    22     8    24 1   
    23     9    10 1   
    24     9    25 1   
    25     9    26 1   
    26    10    27 1   
    27    11    28 1   
    28    11    29 1   
    29    12    13 ar  
    30    12    30 1   
    31    13    31 1   
    32    15    32 1   
    33    17    34 1   
    34    18    34 1   
    35    19    34 1   
@<TRIPOS>SUBSTRUCTURE
     1 JLD         1 TEMP              0 ****  ****    0 ROOT
