@<TRIPOS>MOLECULE
JLD
   34    35     1     0     0
SMALL
bcc


@<TRIPOS>ATOM
      1 C10          0.9430    -0.3330     0.3020 ca         1 JLD      -0.093300
      2 C13          3.6880    -0.2760    -0.1110 ca         1 JLD       0.132900
      3 C15          2.8450    -0.3050    -1.2050 ca         1 JLD      -0.169000
      4 N02         -3.2880    -0.6830    -0.3870 n3         1 JLD      -0.716600
      5 C03         -2.6320    -1.7740     0.3050 c6         1 JLD       0.164800
      6 C04         -1.1300    -1.7260     0.0860 c6         1 JLD      -0.068400
      7 C05         -0.5470    -0.3820     0.5320 c6         1 JLD      -0.014400
      8 C06         -1.3060     0.7660    -0.1490 c6         1 JLD      -0.058700
      9 C07         -0.8150     2.1110     0.3620 c3         1 JLD       0.139400
     10 O08         -1.5020     3.1470    -0.3050 oh         1 JLD      -0.599800
     11 C09         -2.8060     0.6010     0.0780 c6         1 JLD       0.171800
     12 C11          1.8290    -0.3040     1.3750 ca         1 JLD      -0.100000
     13 C12          3.2050    -0.2760     1.1810 ca         1 JLD      -0.169000
     14 F14          5.0180    -0.2450    -0.3120 f          1 JLD      -0.145900
     15 C16          1.4760    -0.3350    -0.9870 ca         1 JLD      -0.100000
     16 H151         3.2480    -0.3040    -2.2100 ha         1 JLD       0.149500
     17 H013        -5.0910    -0.6820     0.7570 h1         1 JLD       0.030367
     18 H011        -5.1980     0.0140    -0.8680 h1         1 JLD       0.030367
     19 H012        -5.0720    -1.7330    -0.6670 h1         1 JLD       0.030367
     20 H032        -3.0290    -2.7200    -0.0720 h1         1 JLD       0.030200
     21 H042        -0.6530    -2.5390     0.6380 hc         1 JLD       0.051200
     22 H041        -0.9140    -1.8900    -0.9740 hc         1 JLD       0.051200
     23 H051        -0.7170    -0.2900     1.6130 hc         1 JLD       0.047700
     24 H061        -1.1200     0.7160    -1.2290 hc         1 JLD       0.073700
     25 H072        -0.9740     2.1590     1.4500 h1         1 JLD       0.021700
     26 H071         0.2670     2.1850     0.1980 h1         1 JLD       0.021700
     27 H081        -1.1860     3.9860     0.0410 ho         1 JLD       0.404000
     28 H092        -3.3450     1.3850    -0.4570 h1         1 JLD       0.038700
     29 H091        -3.0220     0.7470     1.1550 h1         1 JLD       0.038700
     30 H111         1.4440    -0.3010     2.3870 ha         1 JLD       0.136000
     31 H121         3.8850    -0.2520     2.0230 ha         1 JLD       0.149500
     32 H161         0.8170    -0.3550    -1.8470 ha         1 JLD       0.136000
     33 H031        -2.8450    -1.7520     1.3900 h1         1 JLD       0.030200
     34 C01         -4.7260    -0.7740    -0.2790 c3         1 JLD       0.155100
@<TRIPOS>BOND
     1     1     7 1   
     2     1    12 ar  
     3     1    15 ar  
     4     2     3 ar  
     5     2    13 ar  
     6     2    14 1   
     7     3    15 ar  
     8     3    16 1   
     9     4     5 1   
    10     4    11 1   
    11     4    34 1   
    12     5     6 1   
    13     5    20 1   
    14     5    33 1   
    15     6     7 1   
    16     6    21 1   
    17     6    22 1   
    18     7     8 1   
    19     7    23 1   
    20     8     9 1   
    21     8    11 1   
    22     8    24 1   
    23     9    10 1   
    24     9    25 1   
    25     9    26 1   
    26    10    27 1   
    27    11    28 1   
    28    11    29 1   
    29    12    13 ar  
    30    12    30 1   
    31    13    31 1   
    32    15    32 1   
    33    17    34 1   
    34    18    34 1   
    35    19    34 1   
@<TRIPOS>SUBSTRUCTURE
     1 JLD         1 TEMP              0 ****  ****    0 ROOT
