@<TRIPOS>MOLECULE
JLE
   53    57     1     0     0
SMALL
No Charge or Current Charge


@<TRIPOS>ATOM
      1 C5          -1.3580    -1.4430     0.2460 ca         1 JLE      -0.243800
      2 C6          -2.2650    -2.2450     0.9060 ca         1 JLE       0.190300
      3 C4          -0.0780    -1.9770    -0.0030 ca         1 JLE       0.449900
      4 C2          -0.7640    -3.9570     0.9450 ca         1 JLE       0.175900
      5 C8          -3.1950     0.0580     0.5310 cc         1 JLE      -0.087600
      6 N3          -1.9980    -3.5130     1.2640 nb         1 JLE      -0.241000
      7 C25          3.6650     1.7700     2.6280 ca         1 JLE      -0.134000
      8 C24          4.2240     0.4870     2.5070 ca         1 JLE      -0.116500
      9 C23          4.0950    -0.2270     1.3030 ca         1 JLE      -0.108000
     10 C22          3.4070     0.3390     0.2110 ca         1 JLE      -0.052300
     11 C21          3.2540    -0.4430    -1.0920 c3         1 JLE      -0.039100
     12 C9          -1.9260    -0.1210    -0.0130 cd         1 JLE       0.032600
     13 N1           0.2150    -3.2480     0.3420 nb         1 JLE      -0.260000
     14 C11          0.2290     3.0410    -2.0550 ca         1 JLE      -0.143000
     15 C12          0.0370     1.7880    -2.6750 ca         1 JLE      -0.083000
     16 C13         -0.6570     0.7550    -2.0010 ca         1 JLE      -0.120000
     17 C14         -0.2790     3.2140    -0.7630 ca         1 JLE      -0.057200
     18 C10         -1.1690     0.9490    -0.6950 ca         1 JLE       0.008200
     19 C15         -0.9460     2.2110    -0.1150 ca         1 JLE      -0.090800
     20 C20          2.3170    -1.6700    -0.9580 c3         1 JLE       0.074500
     21 C17         -0.7980     4.0530     1.3080 cc         1 JLE      -0.185100
     22 C16         -1.2550     2.7490     1.1890 cd         1 JLE      -0.219200
     23 C26          2.9800     2.3410     1.5430 ca         1 JLE      -0.116500
     24 C27          2.8550     1.6290     0.3380 ca         1 JLE      -0.108000
     25 C28          2.3150    -2.5350    -2.2790 c          1 JLE       0.717000
     26 O30          1.9370    -2.0190    -3.3260 o          1 JLE      -0.715000
     27 O29          2.6850    -3.7000    -2.2090 o          1 JLE      -0.715000
     28 N19          0.9570    -1.2140    -0.5240 nu         1 JLE      -0.843100
     29 S7          -3.7980    -1.4400     1.2970 ss         1 JLE      -0.189900
     30 C31         -4.1070     1.2610     0.4330 c3         1 JLE      -0.004200
     31 C32         -5.4440     0.9600    -0.2710 c3         1 JLE      -0.086100
     32 N18         -0.1910     4.3240     0.0630 na         1 JLE      -0.231700
     33 H1          -0.5250    -4.9820     1.2220 h5         1 JLE       0.030100
     34 H4           4.5280    -1.2210     1.2190 ha         1 JLE       0.115000
     35 H5           2.8810     0.2100    -1.8910 hc         1 JLE       0.060700
     36 H6           4.2390    -0.7910    -1.4240 hc         1 JLE       0.060700
     37 H7           0.7640     3.8410    -2.5620 ha         1 JLE       0.106000
     38 H8           0.4200     1.6170    -3.6790 ha         1 JLE       0.118000
     39 H9          -0.8160    -0.1960    -2.5060 ha         1 JLE       0.146000
     40 H10          2.7420    -2.3130    -0.1750 h1         1 JLE       0.075700
     41 H11         -0.8430     4.7670     2.1270 h4         1 JLE       0.202000
     42 H12         -1.7610     2.2040     1.9830 ha         1 JLE       0.211000
     43 H13          2.5440     3.3330     1.6340 ha         1 JLE       0.096000
     44 H14          2.3250     2.0790    -0.4960 ha         1 JLE       0.115000
     45 H16          0.7070    -0.2460    -0.7130 hn         1 JLE       0.488000
     46 H17         -4.3120     1.6480     1.4390 hc         1 JLE       0.044700
     47 H18         -3.6220     2.0730    -0.1180 hc         1 JLE       0.044700
     48 H19         -6.0410     1.8750    -0.3620 hc         1 JLE       0.032367
     49 H20         -5.2680     0.5630    -1.2770 hc         1 JLE       0.032367
     50 H21         -6.0310     0.2260     0.2950 hc         1 JLE       0.032367
     51 H22          0.2520     5.2000    -0.1960 hn         1 JLE       0.341000
     52 H2           3.7620     2.3210     3.5610 ha         1 JLE       0.094000
     53 H3           4.7550     0.0440     3.3470 ha         1 JLE       0.096000
@<TRIPOS>BOND
     1     1     2 ar  
     2     1     3 ar  
     3     1    12 1   
     4     2     6 ar  
     5     2    29 1   
     6     3    13 ar  
     7     3    28 1   
     8     4     6 ar  
     9     4    13 ar  
    10     4    33 1   
    11     5    12 2   
    12     5    29 1   
    13     5    30 1   
    14     7     8 ar  
    15     7    23 ar  
    16     7    52 1   
    17     8     9 ar  
    18     8    53 1   
    19     9    10 ar  
    20     9    34 1   
    21    10    11 1   
    22    10    24 ar  
    23    11    20 1   
    24    11    35 1   
    25    11    36 1   
    26    12    18 1   
    27    14    15 ar  
    28    14    17 ar  
    29    14    37 1   
    30    15    16 ar  
    31    15    38 1   
    32    16    18 ar  
    33    16    39 1   
    34    17    19 ar  
    35    17    32 1   
    36    18    19 ar  
    37    19    22 1   
    38    20    25 1   
    39    20    28 1   
    40    20    40 1   
    41    21    22 2   
    42    21    32 1   
    43    21    41 1   
    44    22    42 1   
    45    23    24 ar  
    46    23    43 1   
    47    24    44 1   
    48    25    26 1   
    49    25    27 1   
    50    28    45 1   
    51    30    31 1   
    52    30    46 1   
    53    30    47 1   
    54    31    48 1   
    55    31    49 1   
    56    31    50 1   
    57    32    51 1   
@<TRIPOS>SUBSTRUCTURE
     1 JLE         1 TEMP              0 ****  ****    0 ROOT
