@<TRIPOS>MOLECULE
JLE
   53    57     1     0     0
SMALL
bcc


@<TRIPOS>ATOM
      1 C5          -1.3560    -1.3120     0.3970 ca         1 JLE      -0.374400
      2 C6          -2.2010    -2.1660     1.0940 ca         1 JLE       0.518600
      3 C4          -0.0430    -1.8170     0.1700 ca         1 JLE       0.778200
      4 C2          -0.6600    -3.7520     1.2290 ca         1 JLE       0.701900
      5 C8          -3.2540     0.0210     0.5390 cc         1 JLE      -0.087600
      6 N3          -1.8930    -3.3910     1.5260 nb         1 JLE      -0.767000
      7 C25          3.8570     1.5890     2.7260 ca         1 JLE      -0.152000
      8 C24          4.5330     0.4140     2.4180 ca         1 JLE      -0.134500
      9 C23          4.3110    -0.2200     1.2040 ca         1 JLE      -0.126000
     10 C22          3.4100     0.3020     0.2770 ca         1 JLE      -0.052300
     11 C21          3.1510    -0.4200    -1.0160 c3         1 JLE      -0.039100
     12 C9          -1.9800    -0.0560     0.0710 cd         1 JLE       0.032600
     13 N1           0.2630    -3.0470     0.5900 nb         1 JLE      -0.786000
     14 C11         -0.0350     3.0730    -2.1940 ca         1 JLE      -0.161000
     15 C12         -0.4430     1.8970    -2.7930 ca         1 JLE      -0.101000
     16 C13         -1.0870     0.8890    -2.0590 ca         1 JLE      -0.138000
     17 C14         -0.2870     3.2170    -0.8320 ca         1 JLE      -0.057200
     18 C10         -1.3380     1.0280    -0.7030 ca         1 JLE       0.008200
     19 C15         -0.9300     2.2140    -0.0720 ca         1 JLE      -0.090800
     20 C20          2.1750    -1.5920    -0.8520 c3         1 JLE       0.074500
     21 C17         -0.4140     3.9240     1.2770 cc         1 JLE      -0.135100
     22 C16         -0.9950     2.6890     1.2730 cd         1 JLE      -0.169200
     23 C26          2.9600     2.1190     1.8090 ca         1 JLE      -0.134500
     24 C27          2.7390     1.4790     0.5960 ca         1 JLE      -0.126000
     25 C28          2.0590    -2.4090    -2.1690 c          1 JLE       0.927600
     26 O30          0.9420    -2.4810    -2.7040 o          1 JLE      -0.820300
     27 O29          3.1290    -2.9120    -2.5650 o          1 JLE      -0.820300
     28 N19          0.9080    -1.0760    -0.4010 nu         1 JLE      -0.787900
     29 S7          -3.7430    -1.4310     1.3650 ss         1 JLE      -0.189900
     30 C31         -4.2470     1.1200     0.3420 c3         1 JLE      -0.004200
     31 C32         -5.1220     0.8990    -0.8900 c3         1 JLE      -0.086100
     32 N18          0.0140     4.2400     0.0190 na         1 JLE      -0.181400
     33 H1          -0.3600    -4.7450     1.5480 h5         1 JLE       0.030100
     34 H4           4.8390    -1.1390     0.9760 ha         1 JLE       0.133000
     35 H5           2.7570     0.2790    -1.7610 hc         1 JLE       0.060700
     36 H6           4.0820    -0.8180    -1.4190 hc         1 JLE       0.060700
     37 H7           0.4670     3.8470    -2.7600 ha         1 JLE       0.124000
     38 H8          -0.2580     1.7430    -3.8480 ha         1 JLE       0.136000
     39 H9          -1.3810    -0.0250    -2.5610 ha         1 JLE       0.164000
     40 H10          2.5680    -2.2590    -0.0810 h1         1 JLE       0.075700
     41 H11         -0.2650     4.6120     2.0940 h4         1 JLE       0.152000
     42 H12         -1.4160     2.1810     2.1250 ha         1 JLE       0.161000
     43 H13          2.4300     3.0360     2.0360 ha         1 JLE       0.114000
     44 H14          2.0380     1.9090    -0.1100 ha         1 JLE       0.133000
     45 H16          0.6040    -0.2170    -0.8310 hn         1 JLE       0.432800
     46 H17         -4.8770     1.2150     1.2290 hc         1 JLE       0.044700
     47 H18         -3.7120     2.0660     0.2460 hc         1 JLE       0.044700
     48 H19         -5.8430     1.7100    -1.0000 hc         1 JLE       0.032367
     49 H20         -4.5160     0.8620    -1.7960 hc         1 JLE       0.032367
     50 H21         -5.6800    -0.0350    -0.8210 hc         1 JLE       0.032367
     51 H22          0.4760     5.0970    -0.2350 hn         1 JLE       0.290700
     52 H2           4.0300     2.0860     3.6710 ha         1 JLE       0.112000
     53 H3           5.2380    -0.0070     3.1240 ha         1 JLE       0.114000
@<TRIPOS>BOND
     1     1     2 ar  
     2     1     3 ar  
     3     1    12 1   
     4     2     6 ar  
     5     2    29 1   
     6     3    13 ar  
     7     3    28 1   
     8     4     6 ar  
     9     4    13 ar  
    10     4    33 1   
    11     5    12 2   
    12     5    29 1   
    13     5    30 1   
    14     7     8 ar  
    15     7    23 ar  
    16     7    52 1   
    17     8     9 ar  
    18     8    53 1   
    19     9    10 ar  
    20     9    34 1   
    21    10    11 1   
    22    10    24 ar  
    23    11    20 1   
    24    11    35 1   
    25    11    36 1   
    26    12    18 1   
    27    14    15 ar  
    28    14    17 ar  
    29    14    37 1   
    30    15    16 ar  
    31    15    38 1   
    32    16    18 ar  
    33    16    39 1   
    34    17    19 ar  
    35    17    32 1   
    36    18    19 ar  
    37    19    22 1   
    38    20    25 1   
    39    20    28 1   
    40    20    40 1   
    41    21    22 2   
    42    21    32 1   
    43    21    41 1   
    44    22    42 1   
    45    23    24 ar  
    46    23    43 1   
    47    24    44 1   
    48    25    26 1   
    49    25    27 1   
    50    28    45 1   
    51    30    31 1   
    52    30    46 1   
    53    30    47 1   
    54    31    48 1   
    55    31    49 1   
    56    31    50 1   
    57    32    51 1   
@<TRIPOS>SUBSTRUCTURE
     1 JLE         1 TEMP              0 ****  ****    0 ROOT
