@<TRIPOS>MOLECULE
JLG
   17    18     1     0     0
SMALL
No Charge or Current Charge


@<TRIPOS>ATOM
      1 C10          2.6300     1.0510    -0.0090 cc         1 JLG      -0.158000
      2 O01         -4.3200    -0.2220    -0.0180 o          1 JLG      -0.700000
      3 O03         -3.1860    -2.0350    -0.0230 o          1 JLG      -0.700000
      4 C04         -1.9520     0.0010    -0.0150 cc         1 JLG       0.246500
      5 C05         -1.9850     1.3820    -0.0110 cd         1 JLG      -0.224000
      6 S06         -0.3680     2.0610    -0.0070 ss         1 JLG      -0.161400
      7 C07          0.2410     0.4060    -0.0120 cd         1 JLG       0.467900
      8 N08         -0.6770    -0.5480    -0.0160 nc         1 JLG      -0.595000
      9 C09          1.6430     0.0940    -0.0130 cd         1 JLG      -0.217500
     10 C11          3.9300     0.4910    -0.0100 cc         1 JLG      -0.136000
     11 C12          3.9420    -0.8820    -0.0140 cd         1 JLG      -0.298000
     12 S13          2.2950    -1.5520    -0.0180 ss         1 JLG       0.301000
     13 H101         2.4640     2.1250    -0.0050 ha         1 JLG       0.130000
     14 H051        -2.8580     2.0230    -0.0090 h4         1 JLG       0.164000
     15 H111         4.8260     1.1060    -0.0070 ha         1 JLG       0.116000
     16 H121         4.7980    -1.5460    -0.0160 h4         1 JLG       0.134000
     17 C02         -3.2430    -0.8090    -0.0190 c          1 JLG       0.630500
@<TRIPOS>BOND
     1     1     9 2   
     2     1    10 1   
     3     1    13 1   
     4     2    17 1   
     5     3    17 1   
     6     4     5 2   
     7     4     8 1   
     8     4    17 1   
     9     5     6 1   
    10     5    14 1   
    11     6     7 1   
    12     7     8 2   
    13     7     9 1   
    14     9    12 1   
    15    10    11 2   
    16    10    15 1   
    17    11    12 1   
    18    11    16 1   
@<TRIPOS>SUBSTRUCTURE
     1 JLG         1 TEMP              0 ****  ****    0 ROOT
