@<TRIPOS>MOLECULE
JLG
   17    18     1     0     0
SMALL
abcg2


@<TRIPOS>ATOM
      1 C10          2.6790     1.0950    -0.0080 cc         1 JLG      -0.158000
      2 O01         -4.2690    -0.2990    -0.0250 o          1 JLG      -0.700000
      3 O03         -2.9430    -2.0980    -0.0170 o          1 JLG      -0.700000
      4 C04         -1.9520     0.0310    -0.0150 cc         1 JLG       0.246500
      5 C05         -2.0180     1.3920    -0.0100 cd         1 JLG      -0.224000
      6 S06         -0.4460     2.0670    -0.0070 ss         1 JLG      -0.161400
      7 C07          0.2120     0.4640    -0.0120 cd         1 JLG       0.467900
      8 N08         -0.6830    -0.4740    -0.0160 nc         1 JLG      -0.595000
      9 C09          1.6340     0.2110    -0.0120 cd         1 JLG      -0.217500
     10 C11          3.9400     0.4470    -0.0100 cc         1 JLG      -0.136000
     11 C12          3.8280    -0.9110    -0.0160 cd         1 JLG      -0.298000
     12 S13          2.1940    -1.4200    -0.0190 ss         1 JLG       0.301000
     13 H101         2.5570     2.1700    -0.0030 ha         1 JLG       0.130000
     14 H051        -2.8950     2.0190    -0.0090 h4         1 JLG       0.164000
     15 H111         4.8860     0.9690    -0.0070 ha         1 JLG       0.116000
     16 H121         4.6220    -1.6410    -0.0180 h4         1 JLG       0.134000
     17 C02         -3.1660    -0.8770    -0.0190 c          1 JLG       0.630500
@<TRIPOS>BOND
     1     1     9 2   
     2     1    10 1   
     3     1    13 1   
     4     2    17 1   
     5     3    17 1   
     6     4     5 2   
     7     4     8 1   
     8     4    17 1   
     9     5     6 1   
    10     5    14 1   
    11     6     7 1   
    12     7     8 2   
    13     7     9 1   
    14     9    12 1   
    15    10    11 2   
    16    10    15 1   
    17    11    12 1   
    18    11    16 1   
@<TRIPOS>SUBSTRUCTURE
     1 JLG         1 TEMP              0 ****  ****    0 ROOT
