@<TRIPOS>MOLECULE
JLH
   75    79     1     0     0
SMALL
No Charge or Current Charge


@<TRIPOS>ATOM
      1 C10         -3.7740    -3.8880    -0.7610 c3         1 JLH      -0.008200
      2 C13          0.4080     2.1040     1.4420 c3         1 JLH      -0.027100
      3 C17          0.9780     2.3220     0.0430 ca         1 JLH      -0.063300
      4 C20          1.4710     1.4800    -2.1960 ca         1 JLH      -0.121500
      5 C21          2.1000     3.7500    -1.5900 ca         1 JLH      -0.121500
      6 C22         -4.6040    -4.8070     0.1550 c3         1 JLH      -0.087100
      7 C24         -1.6570    -1.7370     0.1750 ca         1 JLH      -0.052800
      8 C26          1.0920    -2.1790     0.6780 ca         1 JLH       0.141100
      9 C28          0.5640    -2.3950    -0.6140 ca         1 JLH       0.063000
     10 Cl           1.6580    -2.9020    -1.9130 cl         1 JLH      -0.210000
     11 N01         -3.8440     2.1980     0.6250 nb         1 JLH      -0.265000
     12 C02         -5.1540     2.0740     0.3210 ca         1 JLH       0.175900
     13 N03         -5.7870     0.9490    -0.0710 nb         1 JLH      -0.215000
     14 C04         -3.0830     1.0790     0.5540 ca         1 JLH       0.461300
     15 S05         -5.6360    -1.7260    -0.6810 ss         1 JLH      -0.175900
     16 C06         -4.0010    -2.4190    -0.4900 cc         1 JLH      -0.084600
     17 C07         -3.0990    -1.4770    -0.0100 cd         1 JLH       0.048600
     18 C08         -3.6730    -0.1470     0.1680 ca         1 JLH      -0.199800
     19 C09         -5.0160    -0.1500    -0.1420 ca         1 JLH       0.170300
     20 C12         -1.1320     2.2700     1.5170 c3         1 JLH       0.029300
     21 C14         -1.6080     2.3620     3.0100 c          1 JLH       0.715000
     22 O15         -1.3920     3.4070     3.6110 o          1 JLH      -0.709500
     23 O16         -2.2210     1.4260     3.5090 o          1 JLH      -0.709500
     24 C18          1.5640     3.5560    -0.3050 ca         1 JLH      -0.105500
     25 C19          2.0550     2.7120    -2.5360 ca         1 JLH      -0.133000
     26 C23          0.9360     1.2890    -0.9120 ca         1 JLH      -0.105500
     27 C25         -0.8080    -2.1630    -0.8830 ca         1 JLH      -0.026300
     28 C27          0.2370    -1.7740     1.7200 ca         1 JLH      -0.191000
     29 C29         -1.1230    -1.5560     1.4640 ca         1 JLH      -0.021000
     30 C30         -1.3170    -2.2770    -2.3250 c3         1 JLH      -0.047800
     31 O31          2.4530    -2.3200     0.8700 os         1 JLH      -0.327100
     32 C32          3.1170    -1.8330     2.0540 c3         1 JLH       0.162600
     33 C33          4.6320    -1.6740     1.7520 c3         1 JLH       0.176800
     34 N34          4.9780    -0.8030     0.5910 n3         1 JLH      -0.716600
     35 C35          4.4370     0.5920     0.6870 c6         1 JLH       0.171800
     36 C36          4.7930     1.4580    -0.5630 c6         1 JLH       0.160800
     37 N37          6.2630     1.4960    -0.8320 n3         1 JLH      -0.717600
     38 C38          6.7970     0.1030    -0.9360 c6         1 JLH       0.160800
     39 C39          6.4470    -0.7630     0.3180 c6         1 JLH       0.171800
     40 C40          6.6030     2.3280    -2.0050 c3         1 JLH       0.156100
     41 H1          -2.7180    -4.1480    -0.6260 hc         1 JLH       0.047700
     42 H2          -4.0180    -4.1100    -1.8070 hc         1 JLH       0.047700
     43 H3           0.6800     1.1080     1.8110 hc         1 JLH       0.064700
     44 H4           0.8730     2.8130     2.1380 hc         1 JLH       0.064700
     45 H5           1.4340     0.6740    -2.9250 ha         1 JLH       0.101000
     46 H6           2.5520     4.7040    -1.8520 ha         1 JLH       0.101000
     47 H7          -4.3770    -5.8600    -0.0530 hc         1 JLH       0.033033
     48 H8          -4.3760    -4.6080     1.2090 hc         1 JLH       0.033033
     49 H9          -5.6780    -4.6530    -0.0030 hc         1 JLH       0.033033
     50 H10         -5.7580     2.9770     0.3850 h5         1 JLH       0.035100
     51 H11         -1.3940     3.2240     1.0400 h1         1 JLH       0.060700
     52 H13          1.6060     4.3650     0.4210 ha         1 JLH       0.121000
     53 H14          2.4710     2.8610    -3.5300 ha         1 JLH       0.095000
     54 H15          0.4810     0.3390    -0.6550 ha         1 JLH       0.121000
     55 H16          0.6060    -1.6140     2.7290 ha         1 JLH       0.124000
     56 H17         -1.7740    -1.2340     2.2750 ha         1 JLH       0.158000
     57 H18         -0.6400    -1.7730    -3.0250 hc         1 JLH       0.046367
     58 H19         -1.3950    -3.3260    -2.6340 hc         1 JLH       0.046367
     59 H20         -2.2950    -1.8090    -2.4730 hc         1 JLH       0.046367
     60 H21          2.7190    -0.8550     2.3520 h1         1 JLH       0.042200
     61 H22          2.9750    -2.5270     2.8920 h1         1 JLH       0.042200
     62 H23          5.1140    -1.2830     2.6590 h1         1 JLH       0.031700
     63 H24          5.0440    -2.6780     1.5860 h1         1 JLH       0.031700
     64 H26          3.3420     0.5780     0.7830 h1         1 JLH       0.035700
     65 H27          4.8330     1.0900     1.5850 h1         1 JLH       0.035700
     66 H28          4.2610     1.0450    -1.4320 h1         1 JLH       0.041450
     67 H29          4.4090     2.4750    -0.4040 h1         1 JLH       0.041450
     68 H31          6.3870    -0.3940    -1.8280 h1         1 JLH       0.041450
     69 H32          7.8910     0.1220    -1.0540 h1         1 JLH       0.041450
     70 H33          6.9810    -0.3530     1.1870 h1         1 JLH       0.035700
     71 H34          6.8300    -1.7820     0.1570 h1         1 JLH       0.035700
     72 H35          6.2350     3.3540    -1.8700 h1         1 JLH       0.026033
     73 H36          7.6910     2.3740    -2.1450 h1         1 JLH       0.026033
     74 H37          6.1530     1.9190    -2.9190 h1         1 JLH       0.026033
     75 O11         -1.7250     1.1560     0.7870 os         1 JLH      -0.438300
@<TRIPOS>BOND
     1     1     6 1   
     2     1    16 1   
     3     1    41 1   
     4     1    42 1   
     5     2     3 1   
     6     2    20 1   
     7     2    43 1   
     8     2    44 1   
     9     3    24 ar  
    10     3    26 ar  
    11     4    25 ar  
    12     4    26 ar  
    13     4    45 1   
    14     5    24 ar  
    15     5    25 ar  
    16     5    46 1   
    17     6    47 1   
    18     6    48 1   
    19     6    49 1   
    20     7    17 1   
    21     7    27 ar  
    22     7    29 ar  
    23     8     9 ar  
    24     8    28 ar  
    25     8    31 1   
    26     9    10 1   
    27     9    27 ar  
    28    11    12 ar  
    29    11    14 ar  
    30    12    13 ar  
    31    12    50 1   
    32    13    19 ar  
    33    14    18 ar  
    34    14    75 1   
    35    15    16 1   
    36    15    19 1   
    37    16    17 2   
    38    17    18 1   
    39    18    19 ar  
    40    20    21 1   
    41    20    51 1   
    42    20    75 1   
    43    21    22 1   
    44    21    23 1   
    45    24    52 1   
    46    25    53 1   
    47    26    54 1   
    48    27    30 1   
    49    28    29 ar  
    50    28    55 1   
    51    29    56 1   
    52    30    57 1   
    53    30    58 1   
    54    30    59 1   
    55    31    32 1   
    56    32    33 1   
    57    32    60 1   
    58    32    61 1   
    59    33    34 1   
    60    33    62 1   
    61    33    63 1   
    62    34    35 1   
    63    34    39 1   
    64    35    36 1   
    65    35    64 1   
    66    35    65 1   
    67    36    37 1   
    68    36    66 1   
    69    36    67 1   
    70    37    38 1   
    71    37    40 1   
    72    38    39 1   
    73    38    68 1   
    74    38    69 1   
    75    39    70 1   
    76    39    71 1   
    77    40    72 1   
    78    40    73 1   
    79    40    74 1   
@<TRIPOS>SUBSTRUCTURE
     1 JLH         1 TEMP              0 ****  ****    0 ROOT
