@<TRIPOS>MOLECULE
JLH
   75    79     1     0     0
SMALL
abcg2


@<TRIPOS>ATOM
      1 C10         -3.5650    -3.7490    -0.8050 c3         1 JLH      -0.008200
      2 C13          0.4270     2.1860     1.3760 c3         1 JLH      -0.027100
      3 C17          0.9230     2.4420    -0.0210 ca         1 JLH      -0.063300
      4 C20          1.4290     1.6610    -2.2540 ca         1 JLH      -0.121500
      5 C21          1.7490     3.9730    -1.7050 ca         1 JLH      -0.121500
      6 C22         -4.4510    -4.6740     0.0270 c3         1 JLH      -0.087100
      7 C24         -1.4360    -1.6890     0.1770 ca         1 JLH      -0.052800
      8 C26          1.2450    -2.1840     0.8340 ca         1 JLH       0.141100
      9 C28          0.8020    -2.2120    -0.4890 ca         1 JLH       0.063000
     10 CL           1.9860    -2.4980    -1.7200 cl         1 JLH      -0.210000
     11 N01         -3.6930     2.2050     0.6490 nb         1 JLH      -0.265000
     12 C02         -4.9890     2.0780     0.3710 ca         1 JLH       0.175900
     13 N03         -5.6110     0.9930    -0.0390 nb         1 JLH      -0.215000
     14 C04         -2.9170     1.1470     0.5140 ca         1 JLH       0.461300
     15 S05         -5.3740    -1.6250    -0.6670 ss         1 JLH      -0.175900
     16 C06         -3.7730    -2.3010    -0.5080 cc         1 JLH      -0.084600
     17 C07         -2.8570    -1.3830    -0.0970 cd         1 JLH       0.048600
     18 C08         -3.4520    -0.0900     0.1000 ca         1 JLH      -0.199800
     19 C09         -4.8180    -0.0700    -0.1620 ca         1 JLH       0.170300
     20 C12         -1.0910     2.2840     1.4990 c3         1 JLH       0.029300
     21 C14         -1.5540     2.1530     2.9710 c          1 JLH       0.715000
     22 O15         -1.1400     3.0590     3.7180 o          1 JLH      -0.709500
     23 O16         -2.2700     1.1840     3.2670 o          1 JLH      -0.709500
     24 C18          1.3070     3.7230    -0.4120 ca         1 JLH      -0.105500
     25 C19          1.8100     2.9410    -2.6320 ca         1 JLH      -0.133000
     26 C23          0.9920     1.4150    -0.9600 ca         1 JLH      -0.105500
     27 C25         -0.5230    -1.9690    -0.8480 ca         1 JLH      -0.026300
     28 C27          0.3160    -1.9090     1.8330 ca         1 JLH      -0.191000
     29 C29         -1.0000    -1.6560     1.4960 ca         1 JLH      -0.021000
     30 C30         -0.9150    -1.9630    -2.2950 c3         1 JLH      -0.047800
     31 O31          2.5420    -2.4240     1.0560 os         1 JLH      -0.327100
     32 C32          3.1490    -1.8770     2.2190 c3         1 JLH       0.162600
     33 C33          4.6210    -1.6510     1.9350 c3         1 JLH       0.176800
     34 N34          4.8670    -0.8810     0.7390 n3         1 JLH      -0.716600
     35 C35          4.2790     0.4420     0.7420 c6         1 JLH       0.171800
     36 C36          4.4950     1.1110    -0.6000 c6         1 JLH       0.160800
     37 N37          5.9070     1.2000    -0.9100 n3         1 JLH      -0.717600
     38 C38          6.4940    -0.1240    -0.9110 c6         1 JLH       0.160800
     39 C39          6.2790    -0.8040     0.4280 c6         1 JLH       0.171800
     40 C40          6.1310     1.8900    -2.1590 c3         1 JLH       0.156100
     41 H1          -2.5170    -3.9890    -0.6210 hc         1 JLH       0.047700
     42 H2          -3.7400    -3.9320    -1.8690 hc         1 JLH       0.047700
     43 H3           0.7490     1.1990     1.7220 hc         1 JLH       0.064700
     44 H4           0.8520     2.9210     2.0600 hc         1 JLH       0.064700
     45 H5           1.4830     0.8450    -2.9640 ha         1 JLH       0.101000
     46 H6           2.0480     4.9740    -1.9880 ha         1 JLH       0.101000
     47 H7          -4.2260    -5.7160    -0.1990 hc         1 JLH       0.033033
     48 H8          -4.2880    -4.5170     1.0930 hc         1 JLH       0.033033
     49 H9          -5.5110    -4.5170    -0.1780 hc         1 JLH       0.033033
     50 H10         -5.5940     2.9690     0.4940 h5         1 JLH       0.035100
     51 H11         -1.4230     3.2510     1.1070 h1         1 JLH       0.060700
     52 H13          1.2660     4.5350     0.3060 ha         1 JLH       0.121000
     53 H14          2.1590     3.1330    -3.6380 ha         1 JLH       0.095000
     54 H15          0.7090     0.4120    -0.6710 ha         1 JLH       0.121000
     55 H16          0.6140    -1.8910     2.8740 ha         1 JLH       0.124000
     56 H17         -1.7020    -1.4100     2.2810 ha         1 JLH       0.158000
     57 H18         -0.3070    -1.2580    -2.8630 hc         1 JLH       0.046367
     58 H19         -0.7680    -2.9450    -2.7490 hc         1 JLH       0.046367
     59 H20         -1.9570    -1.6850    -2.4280 hc         1 JLH       0.046367
     60 H21          2.6550    -0.9430     2.5000 h1         1 JLH       0.042200
     61 H22          3.0490    -2.5610     3.0670 h1         1 JLH       0.042200
     62 H23          5.0480    -1.1900     2.8440 h1         1 JLH       0.031700
     63 H24          5.1170    -2.6190     1.8210 h1         1 JLH       0.031700
     64 H26          3.2030     0.3790     0.9100 h1         1 JLH       0.035700
     65 H27          4.6970     1.0750     1.5450 h1         1 JLH       0.035700
     66 H28          3.9460     0.5390    -1.3660 h1         1 JLH       0.041450
     67 H29          4.0600     2.1130    -0.5770 h1         1 JLH       0.041450
     68 H31          6.0640    -0.7580    -1.7070 h1         1 JLH       0.041450
     69 H32          7.5660    -0.0430    -1.1070 h1         1 JLH       0.041450
     70 H33          6.8440    -0.2590     1.2060 h1         1 JLH       0.035700
     71 H34          6.6910    -1.8150     0.3820 h1         1 JLH       0.035700
     72 H35          5.7440     2.9090    -2.0980 h1         1 JLH       0.026033
     73 H36          7.2000     1.9490    -2.3680 h1         1 JLH       0.026033
     74 H37          5.6470     1.4020    -3.0190 h1         1 JLH       0.026033
     75 O11         -1.6230     1.2290     0.7030 os         1 JLH      -0.438300
@<TRIPOS>BOND
     1     1     6 1   
     2     1    16 1   
     3     1    41 1   
     4     1    42 1   
     5     2     3 1   
     6     2    20 1   
     7     2    43 1   
     8     2    44 1   
     9     3    24 ar  
    10     3    26 ar  
    11     4    25 ar  
    12     4    26 ar  
    13     4    45 1   
    14     5    24 ar  
    15     5    25 ar  
    16     5    46 1   
    17     6    47 1   
    18     6    48 1   
    19     6    49 1   
    20     7    17 1   
    21     7    27 ar  
    22     7    29 ar  
    23     8     9 ar  
    24     8    28 ar  
    25     8    31 1   
    26     9    10 1   
    27     9    27 ar  
    28    11    12 ar  
    29    11    14 ar  
    30    12    13 ar  
    31    12    50 1   
    32    13    19 ar  
    33    14    18 ar  
    34    14    75 1   
    35    15    16 1   
    36    15    19 1   
    37    16    17 2   
    38    17    18 1   
    39    18    19 ar  
    40    20    21 1   
    41    20    51 1   
    42    20    75 1   
    43    21    22 1   
    44    21    23 1   
    45    24    52 1   
    46    25    53 1   
    47    26    54 1   
    48    27    30 1   
    49    28    29 ar  
    50    28    55 1   
    51    29    56 1   
    52    30    57 1   
    53    30    58 1   
    54    30    59 1   
    55    31    32 1   
    56    32    33 1   
    57    32    60 1   
    58    32    61 1   
    59    33    34 1   
    60    33    62 1   
    61    33    63 1   
    62    34    35 1   
    63    34    39 1   
    64    35    36 1   
    65    35    64 1   
    66    35    65 1   
    67    36    37 1   
    68    36    66 1   
    69    36    67 1   
    70    37    38 1   
    71    37    40 1   
    72    38    39 1   
    73    38    68 1   
    74    38    69 1   
    75    39    70 1   
    76    39    71 1   
    77    40    72 1   
    78    40    73 1   
    79    40    74 1   
@<TRIPOS>SUBSTRUCTURE
     1 JLH         1 TEMP              0 ****  ****    0 ROOT
