@<TRIPOS>MOLECULE
JLI
   40    43     1     0     0
SMALL
abcg2


@<TRIPOS>ATOM
      1 C6          13.6550    38.0650   -13.7300 c          1 JLI       0.652700
      2 C8           9.6300    36.0470    -8.6120 cc         1 JLI       0.121400
      3 C13         15.9980    36.3540   -15.9880 cc         1 JLI       0.253900
      4 C15         11.5140    38.6310   -11.6880 cc         1 JLI      -0.206000
      5 C17         10.6190    38.7170   -10.6760 cd         1 JLI      -0.085000
      6 C22         15.3610    39.7510   -15.6310 c3         1 JLI       0.085900
      7 C24          8.1480    35.9270    -6.6120 ca         1 JLI      -0.092000
      8 C26          8.4900    33.1820    -6.4680 ca         1 JLI      -0.121500
      9 C1          10.9250    36.3950   -10.2740 cd         1 JLI       0.442500
     10 C2          14.6330    37.4920   -14.6890 cd         1 JLI      -0.212600
     11 C3          15.0350    36.1850   -14.9860 cc         1 JLI      -0.203600
     12 N4          11.8060    36.2880   -11.2690 nd         1 JLI      -0.683000
     13 N5          10.5080    35.4490    -9.4670 nc         1 JLI      -0.291600
     14 N7          10.3250    37.6070    -9.9600 na         1 JLI      -0.090400
     15 C9          12.1110    37.3610   -11.9620 cc         1 JLI       0.536900
     16 N10         15.3570    38.3050   -15.5020 na         1 JLI       0.143800
     17 N11         16.1790    37.6240   -16.2840 nd         1 JLI      -0.561800
     18 C12          9.4940    37.3850    -8.8940 cd         1 JLI      -0.294100
     19 N14         13.0300    37.1420   -12.9610 ns         1 JLI      -0.509400
     20 C16         14.6420    34.8290   -14.4670 c          1 JLI       0.742600
     21 O18         13.4700    39.2700   -13.6670 o          1 JLI      -0.660100
     22 C19          8.9590    35.2900    -7.5540 ca         1 JLI      -0.001800
     23 O20         13.7800    34.7700   -13.5470 o          1 JLI      -0.670000
     24 O21         15.2040    33.8630   -14.9900 o          1 JLI      -0.670000
     25 C23          9.1230    33.9070    -7.4670 ca         1 JLI      -0.092000
     26 C25          7.5160    35.2010    -5.6150 ca         1 JLI      -0.121500
     27 C27          7.6830    33.8240    -5.5390 ca         1 JLI      -0.119000
     28 H29         16.5610    35.5880   -16.4980 h4         1 JLI       0.046100
     29 H34         16.0940    39.9890   -16.3960 h1         1 JLI       0.050033
     30 H36         14.3880    40.1240   -15.9380 h1         1 JLI       0.050033
     31 H35         15.6490    40.2300   -14.6990 h1         1 JLI       0.050033
     32 H38          8.0100    37.0010    -6.6470 ha         1 JLI       0.125000
     33 H40          8.6290    32.1090    -6.4180 ha         1 JLI       0.104000
     34 H28          8.9030    38.1730    -8.4590 h4         1 JLI       0.218000
     35 H30         13.3040    36.1160   -13.1270 hn         1 JLI       0.437500
     36 H37          9.7490    33.3980    -8.1880 ha         1 JLI       0.125000
     37 H39          6.8930    35.7140    -4.8940 ha         1 JLI       0.104000
     38 H41          7.1900    33.2570    -4.7600 ha         1 JLI       0.101000
     39 H31         11.7520    39.5090   -12.2610 ha         1 JLI       0.164000
     40 H32         10.1180    39.6340   -10.4010 h4         1 JLI       0.131000
@<TRIPOS>BOND
     1     1    10 1   
     2     1    19 1   
     3     1    21 2   
     4     2    13 1   
     5     2    18 2   
     6     2    22 1   
     7     3    11 1   
     8     3    17 2   
     9     3    28 1   
    10     4     5 2   
    11     4    15 1   
    12     4    39 1   
    13     5    14 1   
    14     5    40 1   
    15     6    16 1   
    16     6    29 1   
    17     6    30 1   
    18     6    31 1   
    19     7    22 ar  
    20     7    26 ar  
    21     7    32 1   
    22     8    25 ar  
    23     8    27 ar  
    24     8    33 1   
    25     9    12 1   
    26     9    13 2   
    27     9    14 1   
    28    10    11 2   
    29    10    16 1   
    30    11    20 1   
    31    12    15 2   
    32    14    18 1   
    33    15    19 1   
    34    16    17 1   
    35    18    34 1   
    36    19    35 1   
    37    20    23 1   
    38    20    24 1   
    39    22    25 ar  
    40    25    36 1   
    41    26    27 ar  
    42    26    37 1   
    43    27    38 1   
@<TRIPOS>SUBSTRUCTURE
     1 JLI         1 TEMP              0 ****  ****    0 ROOT
