@<TRIPOS>MOLECULE
JLI
   40    43     1     0     0
SMALL
No Charge or Current Charge


@<TRIPOS>ATOM
      1 C6          13.7320    38.0690   -13.6510 c          1 JLI       0.652700
      2 C8           9.7090    35.9980    -8.5980 cc         1 JLI       0.121400
      3 C13         15.9700    36.3730   -16.1050 cc         1 JLI       0.253900
      4 C15         11.3620    38.5270   -11.7090 cc         1 JLI      -0.206000
      5 C17         10.4140    38.6640   -10.7050 cd         1 JLI      -0.085000
      6 C22         15.4690    39.8120   -15.6350 c3         1 JLI       0.085900
      7 C24          8.2100    35.9840    -6.5760 ca         1 JLI      -0.092000
      8 C26          8.3880    33.1870    -6.4180 ca         1 JLI      -0.121500
      9 C1          11.0530    36.3870   -10.2110 cd         1 JLI       0.442500
     10 C2          14.6820    37.5300   -14.6910 cd         1 JLI      -0.212600
     11 C3          15.0450    36.2330   -15.0620 cc         1 JLI      -0.203600
     12 N4          11.9980    36.1940   -11.1950 nd         1 JLI      -0.683000
     13 N5          10.6880    35.4250    -9.3880 nc         1 JLI      -0.291600
     14 N7          10.3430    37.5230    -9.9250 na         1 JLI      -0.090400
     15 C9          12.1360    37.3070   -11.9020 cc         1 JLI       0.536900
     16 N10         15.4450    38.3380   -15.5670 na         1 JLI       0.143800
     17 N11         16.2380    37.6120   -16.4390 nd         1 JLI      -0.561800
     18 C12          9.4360    37.3150    -8.9180 cd         1 JLI      -0.294100
     19 N14         13.0700    37.1560   -12.8880 ns         1 JLI      -0.509400
     20 C16         14.6630    34.8720   -14.5900 c          1 JLI       0.742600
     21 O18         13.5770    39.2680   -13.4870 o          1 JLI      -0.660100
     22 C19          8.9740    35.2860    -7.5400 ca         1 JLI      -0.001800
     23 O20         13.8730    34.7420   -13.6740 o          1 JLI      -0.670000
     24 O21         15.1720    33.9100   -15.1450 o          1 JLI      -0.670000
     25 C23          9.0640    33.8790    -7.4380 ca         1 JLI      -0.092000
     26 C25          7.5340    35.2900    -5.5560 ca         1 JLI      -0.121500
     27 C27          7.6200    33.8910    -5.4780 ca         1 JLI      -0.119000
     28 H29         16.4720    35.5820   -16.6460 h4         1 JLI       0.046100
     29 H34         16.1580    40.1420   -16.4210 h1         1 JLI       0.050033
     30 H36         14.4630    40.1850   -15.8630 h1         1 JLI       0.050033
     31 H35         15.8030    40.2180   -14.6730 h1         1 JLI       0.050033
     32 H38          8.1380    37.0670    -6.6030 ha         1 JLI       0.125000
     33 H40          8.4610    32.1030    -6.3570 ha         1 JLI       0.104000
     34 H28          8.7290    38.0490    -8.5470 h4         1 JLI       0.218000
     35 H30         13.3600    36.2000   -13.0410 hn         1 JLI       0.437500
     36 H37          9.6540    33.3140    -8.1550 ha         1 JLI       0.125000
     37 H39          6.9470    35.8390    -4.8230 ha         1 JLI       0.104000
     38 H41          7.0980    33.3560    -4.6880 ha         1 JLI       0.101000
     39 H31         11.5030    39.3580   -12.3840 ha         1 JLI       0.164000
     40 H32          9.7830    39.5200   -10.4940 h4         1 JLI       0.131000
@<TRIPOS>BOND
     1     1    10 1   
     2     1    19 1   
     3     1    21 2   
     4     2    13 1   
     5     2    18 2   
     6     2    22 1   
     7     3    11 1   
     8     3    17 2   
     9     3    28 1   
    10     4     5 2   
    11     4    15 1   
    12     4    39 1   
    13     5    14 1   
    14     5    40 1   
    15     6    16 1   
    16     6    29 1   
    17     6    30 1   
    18     6    31 1   
    19     7    22 ar  
    20     7    26 ar  
    21     7    32 1   
    22     8    25 ar  
    23     8    27 ar  
    24     8    33 1   
    25     9    12 1   
    26     9    13 2   
    27     9    14 1   
    28    10    11 2   
    29    10    16 1   
    30    11    20 1   
    31    12    15 2   
    32    14    18 1   
    33    15    19 1   
    34    16    17 1   
    35    18    34 1   
    36    19    35 1   
    37    20    23 1   
    38    20    24 1   
    39    22    25 ar  
    40    25    36 1   
    41    26    27 ar  
    42    26    37 1   
    43    27    38 1   
@<TRIPOS>SUBSTRUCTURE
     1 JLI         1 TEMP              0 ****  ****    0 ROOT
