@<TRIPOS>MOLECULE
JLJ
   41    42     1     0     0
SMALL
No Charge or Current Charge


@<TRIPOS>ATOM
      1 C11         -3.0890     0.1190     0.0610 ca         1 JLJ       0.418900
      2 N12         -3.9350    -0.9190     0.0420 nb         1 JLJ      -0.336000
      3 C13         -5.2390    -0.6400     0.2400 ca         1 JLJ       0.393300
      4 C14         -5.6710     0.6740     0.4620 ca         1 JLJ      -0.281000
      5 C15         -4.7020     1.6870     0.4750 ca         1 JLJ       0.160900
      6 N16         -3.4000     1.4100     0.2780 nb         1 JLJ      -0.248000
      7 O17         -6.1900    -1.6360     0.2320 os         1 JLJ      -0.449300
      8 C18         -5.8240    -3.0130     0.0090 c3         1 JLJ       0.158900
      9 N19         -1.7620    -0.2320    -0.1170 nu         1 JLJ      -0.927900
     10 C20          1.8980     1.7960    -0.5700 ca         1 JLJ      -0.101000
     11 C21          1.8580     0.4890    -0.0430 ca         1 JLJ       0.221100
     12 C22          0.6170    -0.1680     0.0990 ca         1 JLJ      -0.286000
     13 C23         -0.5710     0.4730    -0.2690 ca         1 JLJ       0.386000
     14 C24         -0.5240     1.7680    -0.8080 ca         1 JLJ      -0.188000
     15 C25          0.7040     2.4320    -0.9560 ca         1 JLJ      -0.007000
     16 N27          4.1540     3.0620    -0.8640 n1         1 JLJ      -0.471000
     17 C28          3.1470     2.4870    -0.7280 cg         1 JLJ       0.350000
     18 C41          3.1080    -1.4570     0.8290 c3         1 JLJ       0.206800
     19 C42          4.5660    -1.7790     1.0820 c2         1 JLJ      -0.243200
     20 C43          5.5160    -2.0220     0.1610 c2         1 JLJ      -0.070400
     21 C44          5.2930    -2.0140    -1.3440 c3         1 JLJ      -0.063900
     22 C45          6.9530    -2.3360     0.5330 c3         1 JLJ      -0.063900
     23 H1          -6.7210     0.8970     0.6220 ha         1 JLJ       0.150000
     24 H2          -4.9670     2.7290     0.6470 h4         1 JLJ       0.028100
     25 H3          -5.3480    -3.1370    -0.9730 h1         1 JLJ       0.051033
     26 H4          -5.1260    -3.3630     0.7800 h1         1 JLJ       0.051033
     27 H5          -6.7130    -3.6550     0.0380 h1         1 JLJ       0.051033
     28 H6          -1.6250    -1.2370    -0.0410 hn         1 JLJ       0.510000
     29 H7           0.5610    -1.1720     0.5040 ha         1 JLJ       0.118000
     30 H8          -1.4320     2.2630    -1.1350 ha         1 JLJ       0.158000
     31 H9           0.7260     3.4360    -1.3750 ha         1 JLJ       0.126000
     32 H10          2.5420    -1.5410     1.7660 h1         1 JLJ       0.040200
     33 H11          2.6870    -2.1690     0.1070 h1         1 JLJ       0.040200
     34 H12          4.8170    -1.8030     2.1430 ha         1 JLJ       0.183000
     35 H13          5.9310    -1.2660    -1.8300 hc         1 JLJ       0.044533
     36 H14          5.5340    -2.9910    -1.7810 hc         1 JLJ       0.044533
     37 H15          4.2580    -1.7820    -1.6160 hc         1 JLJ       0.044533
     38 H16          7.1010    -2.3380     1.6190 hc         1 JLJ       0.044533
     39 H17          7.2520    -3.3230     0.1590 hc         1 JLJ       0.044533
     40 H18          7.6420    -1.5950     0.1090 hc         1 JLJ       0.044533
     41 O26          3.0470    -0.1160     0.3210 os         1 JLJ      -0.331100
@<TRIPOS>BOND
     1     1     2 ar  
     2     1     6 ar  
     3     1     9 1   
     4     2     3 ar  
     5     3     4 ar  
     6     3     7 1   
     7     4     5 ar  
     8     4    23 1   
     9     5     6 ar  
    10     5    24 1   
    11     7     8 1   
    12     8    25 1   
    13     8    26 1   
    14     8    27 1   
    15     9    13 1   
    16     9    28 1   
    17    10    11 ar  
    18    10    15 ar  
    19    10    17 1   
    20    11    12 ar  
    21    11    41 1   
    22    12    13 ar  
    23    12    29 1   
    24    13    14 ar  
    25    14    15 ar  
    26    14    30 1   
    27    15    31 1   
    28    16    17 3   
    29    18    19 1   
    30    18    32 1   
    31    18    33 1   
    32    18    41 1   
    33    19    20 2   
    34    19    34 1   
    35    20    21 1   
    36    20    22 1   
    37    21    35 1   
    38    21    36 1   
    39    21    37 1   
    40    22    38 1   
    41    22    39 1   
    42    22    40 1   
@<TRIPOS>SUBSTRUCTURE
     1 JLJ         1 TEMP              0 ****  ****    0 ROOT
