@<TRIPOS>MOLECULE
JLJ
   41    42     1     0     0
SMALL
abcg2


@<TRIPOS>ATOM
      1 C11         -3.0480     0.1580    -0.0430 ca         1 JLJ       0.418900
      2 N12         -3.8360    -0.9160     0.0830 nb         1 JLJ      -0.336000
      3 C13         -5.1320    -0.7170     0.0190 ca         1 JLJ       0.393300
      4 C14         -5.6830     0.5600    -0.1760 ca         1 JLJ      -0.281000
      5 C15         -4.7730     1.5780    -0.2940 ca         1 JLJ       0.160900
      6 N16         -3.4500     1.4000    -0.2310 nb         1 JLJ      -0.248000
      7 O17         -5.9620    -1.7370     0.1410 os         1 JLJ      -0.449300
      8 C18         -5.4170    -3.0370     0.3560 c3         1 JLJ       0.158900
      9 N19         -1.7140    -0.1400     0.0400 nu         1 JLJ      -0.927900
     10 C20          1.8080     2.0850    -0.0240 ca         1 JLJ      -0.101000
     11 C21          1.8280     0.6890     0.1460 ca         1 JLJ       0.221100
     12 C22          0.6330    -0.0090     0.1560 ca         1 JLJ      -0.286000
     13 C23         -0.5920     0.6580     0.0040 ca         1 JLJ       0.386000
     14 C24         -0.6080     2.0480    -0.1690 ca         1 JLJ      -0.188000
     15 C25          0.5870     2.7370    -0.1800 ca         1 JLJ      -0.007000
     16 N27          4.0110     3.4120    -0.0480 n1         1 JLJ      -0.471000
     17 C28          3.0270     2.8100    -0.0360 cg         1 JLJ       0.350000
     18 C41          3.1440    -1.2780     0.4780 c3         1 JLJ       0.206800
     19 C42          4.5780    -1.5850     0.7370 c2         1 JLJ      -0.243200
     20 C43          5.4210    -2.2120    -0.0890 c2         1 JLJ      -0.070400
     21 C44          5.0790    -2.7060    -1.4610 c3         1 JLJ      -0.063900
     22 C45          6.8390    -2.4720     0.3270 c3         1 JLJ      -0.063900
     23 H1          -6.7490     0.7260    -0.2290 ha         1 JLJ       0.150000
     24 H2          -5.1090     2.5970    -0.4460 h4         1 JLJ       0.028100
     25 H3          -4.8010    -3.3570    -0.4830 h1         1 JLJ       0.051033
     26 H4          -4.8210    -3.0750     1.2690 h1         1 JLJ       0.051033
     27 H5          -6.2710    -3.7010     0.4540 h1         1 JLJ       0.051033
     28 H6          -1.5440    -1.1250     0.1810 hn         1 JLJ       0.510000
     29 H7           0.6280    -1.0840     0.2810 ha         1 JLJ       0.118000
     30 H8          -1.5370     2.5780    -0.2920 ha         1 JLJ       0.158000
     31 H9           0.5750     3.8100    -0.3100 ha         1 JLJ       0.126000
     32 H10          2.5400    -1.5740     1.3420 h1         1 JLJ       0.040200
     33 H11          2.7520    -1.8020    -0.3970 h1         1 JLJ       0.040200
     34 H12          4.9500    -1.2620     1.7050 ha         1 JLJ       0.183000
     35 H13          5.7450    -2.2500    -2.1970 hc         1 JLJ       0.044533
     36 H14          5.2380    -3.7840    -1.5290 hc         1 JLJ       0.044533
     37 H15          4.0570    -2.4980    -1.7680 hc         1 JLJ       0.044533
     38 H16          7.0530    -2.0940     1.3250 hc         1 JLJ       0.044533
     39 H17          7.0540    -3.5440     0.3150 hc         1 JLJ       0.044533
     40 H18          7.5380    -2.0070    -0.3720 hc         1 JLJ       0.044533
     41 O26          3.0340     0.1380     0.2850 os         1 JLJ      -0.331100
@<TRIPOS>BOND
     1     1     2 ar  
     2     1     6 ar  
     3     1     9 1   
     4     2     3 ar  
     5     3     4 ar  
     6     3     7 1   
     7     4     5 ar  
     8     4    23 1   
     9     5     6 ar  
    10     5    24 1   
    11     7     8 1   
    12     8    25 1   
    13     8    26 1   
    14     8    27 1   
    15     9    13 1   
    16     9    28 1   
    17    10    11 ar  
    18    10    15 ar  
    19    10    17 1   
    20    11    12 ar  
    21    11    41 1   
    22    12    13 ar  
    23    12    29 1   
    24    13    14 ar  
    25    14    15 ar  
    26    14    30 1   
    27    15    31 1   
    28    16    17 3   
    29    18    19 1   
    30    18    32 1   
    31    18    33 1   
    32    18    41 1   
    33    19    20 2   
    34    19    34 1   
    35    20    21 1   
    36    20    22 1   
    37    21    35 1   
    38    21    36 1   
    39    21    37 1   
    40    22    38 1   
    41    22    39 1   
    42    22    40 1   
@<TRIPOS>SUBSTRUCTURE
     1 JLJ         1 TEMP              0 ****  ****    0 ROOT
