@<TRIPOS>MOLECULE
JLK
   52    55     1     0     0
SMALL
abcg2


@<TRIPOS>ATOM
      1 N10         -0.9640    -0.7680     0.3480 nu         1 JLK      -0.843100
      2 C11         -2.2220    -1.2700     0.8440 c3         1 JLK       0.072500
      3 C13         -2.0780    -1.9920     2.2120 c          1 JLK       0.716000
      4 C18          1.3210     1.3190     0.5860 ca         1 JLK      -0.044800
      5 C19          0.1150     3.4650     1.8850 ca         1 JLK      -0.115000
      6 C20          0.5780     2.3870     2.6250 ca         1 JLK      -0.114000
      7 C21          1.1810     1.3220     1.9730 ca         1 JLK      -0.078000
      8 C22          0.2520     3.4660     0.5040 ca         1 JLK      -0.129000
      9 C23          0.8440     2.4000    -0.1690 ca         1 JLK      -0.059300
     10 C24          0.9480     2.4030    -1.6650 c3         1 JLK      -0.045800
     11 C25         -3.4280     0.5940    -0.3650 ca         1 JLK      -0.051300
     12 C27         -2.9810     2.4510    -1.8510 ca         1 JLK      -0.117500
     13 C28         -3.7620     1.8670    -2.8380 ca         1 JLK      -0.133000
     14 C29         -4.3800     0.6470    -2.5890 ca         1 JLK      -0.117500
     15 C30         -4.2130     0.0190    -1.3630 ca         1 JLK      -0.110000
     16 C9           1.9690     0.1600    -0.0710 cc         1 JLK       0.030600
     17 C5           1.3290    -1.0990    -0.3420 ca         1 JLK      -0.242800
     18 C8           3.2720     0.1670    -0.4560 cd         1 JLK      -0.091600
     19 C16          4.2760     1.2610    -0.2920 c3         1 JLK      -0.003200
     20 C17          5.1590     1.0670     0.9400 c3         1 JLK      -0.086100
     21 S7           3.7670    -1.3540    -1.1440 ss         1 JLK      -0.186900
     22 C6           2.1890    -2.0250    -0.9190 ca         1 JLK       0.190300
     23 N3           1.8740    -3.2740    -1.2680 nb         1 JLK      -0.238000
     24 C2           0.6200    -3.5850    -1.0060 ca         1 JLK       0.175900
     25 N1          -0.3140    -2.8150    -0.4660 nb         1 JLK      -0.259000
     26 C4          -0.0010    -1.5610    -0.1310 ca         1 JLK       0.447900
     27 O15         -3.1220    -2.5290     2.6320 o          1 JLK      -0.714500
     28 O14         -0.9660    -1.9600     2.7620 o          1 JLK      -0.714500
     29 C12         -3.2190    -0.1100     0.9470 c3         1 JLK      -0.039100
     30 C26         -2.8180     1.8170    -0.6260 ca         1 JLK      -0.110000
     31 H1          -0.6650     0.1170     0.7280 hn         1 JLK       0.486000
     32 H2          -2.6110    -1.9920     0.1220 h1         1 JLK       0.075700
     33 H3          -0.3580     4.3040     2.3780 ha         1 JLK       0.103000
     34 H4           0.4710     2.3740     3.7020 ha         1 JLK       0.117000
     35 H5           1.5450     0.4750     2.5410 ha         1 JLK       0.141000
     36 H6          -0.1250     4.3060    -0.0680 ha         1 JLK       0.102000
     37 H7           1.9880     2.3980    -1.9980 hc         1 JLK       0.043367
     38 H8           0.4700     1.5220    -2.0960 hc         1 JLK       0.043367
     39 H9           0.4670     3.2850    -2.0870 hc         1 JLK       0.043367
     40 H10         -2.4990     3.4040    -2.0330 ha         1 JLK       0.097000
     41 H11         -3.8910     2.3580    -3.7950 ha         1 JLK       0.095000
     42 H12         -4.9960     0.1860    -3.3500 ha         1 JLK       0.097000
     43 H13         -4.6970    -0.9330    -1.1790 ha         1 JLK       0.115000
     44 H14          4.9000     1.3310    -1.1860 hc         1 JLK       0.042700
     45 H15          3.7450     2.2120    -0.2140 hc         1 JLK       0.042700
     46 H16          5.8750     1.8830     1.0300 hc         1 JLK       0.032700
     47 H17          4.5580     1.0430     1.8490 hc         1 JLK       0.032700
     48 H18          5.7200     0.1340     0.8840 hc         1 JLK       0.032700
     49 H19          0.3110    -4.5930    -1.2630 h5         1 JLK       0.031100
     50 H21         -4.1630    -0.5140     1.3140 hc         1 JLK       0.060700
     51 H22         -2.8710     0.6070     1.6980 hc         1 JLK       0.060700
     52 H23         -2.2070     2.2840     0.1380 ha         1 JLK       0.115000
@<TRIPOS>BOND
     1     1     2 1   
     2     1    26 1   
     3     1    31 1   
     4     2     3 1   
     5     2    29 1   
     6     2    32 1   
     7     3    27 1   
     8     3    28 1   
     9     4     7 ar  
    10     4     9 ar  
    11     4    16 1   
    12     5     6 ar  
    13     5     8 ar  
    14     5    33 1   
    15     6     7 ar  
    16     6    34 1   
    17     7    35 1   
    18     8     9 ar  
    19     8    36 1   
    20     9    10 1   
    21    10    37 1   
    22    10    38 1   
    23    10    39 1   
    24    11    15 ar  
    25    11    29 1   
    26    11    30 ar  
    27    12    13 ar  
    28    12    30 ar  
    29    12    40 1   
    30    13    14 ar  
    31    13    41 1   
    32    14    15 ar  
    33    14    42 1   
    34    15    43 1   
    35    16    17 1   
    36    16    18 2   
    37    17    22 ar  
    38    17    26 ar  
    39    18    19 1   
    40    18    21 1   
    41    19    20 1   
    42    19    44 1   
    43    19    45 1   
    44    20    46 1   
    45    20    47 1   
    46    20    48 1   
    47    21    22 1   
    48    22    23 ar  
    49    23    24 ar  
    50    24    25 ar  
    51    24    49 1   
    52    25    26 ar  
    53    29    50 1   
    54    29    51 1   
    55    30    52 1   
@<TRIPOS>SUBSTRUCTURE
     1 JLK         1 TEMP              0 ****  ****    0 ROOT
