@<TRIPOS>MOLECULE
JLK
   52    55     1     0     0
SMALL
No Charge or Current Charge


@<TRIPOS>ATOM
      1 N10         -0.8870    -0.9920     0.4420 nu         1 JLK      -0.843100
      2 C11         -2.2870    -1.3230     0.8600 c3         1 JLK       0.072500
      3 C13         -2.3780    -2.2450     2.1400 c          1 JLK       0.716000
      4 C18          1.2630     1.1140     0.3650 ca         1 JLK      -0.044800
      5 C19         -0.0990     3.3720     1.3510 ca         1 JLK      -0.115000
      6 C20          0.5980     2.5330     2.2350 ca         1 JLK      -0.114000
      7 C21          1.2770     1.4070     1.7410 ca         1 JLK      -0.078000
      8 C22         -0.1180     3.0830    -0.0220 ca         1 JLK      -0.129000
      9 C23          0.5520     1.9510    -0.5250 ca         1 JLK      -0.059300
     10 C24          0.4990     1.6390    -2.0160 c3         1 JLK      -0.045800
     11 C25         -3.1720     0.9450    -0.1310 ca         1 JLK      -0.051300
     12 C27         -3.5130     3.2240    -0.9540 ca         1 JLK      -0.117500
     13 C28         -3.3600     2.7780    -2.2760 ca         1 JLK      -0.133000
     14 C29         -3.1220     1.4190    -2.5310 ca         1 JLK      -0.117500
     15 C30         -3.0330     0.5050    -1.4670 ca         1 JLK      -0.110000
     16 C9           1.9550    -0.0780    -0.1150 cc         1 JLK       0.030600
     17 C5           1.4010    -1.4040    -0.2680 ca         1 JLK      -0.242800
     18 C8           3.2940    -0.0210    -0.4730 cd         1 JLK      -0.091600
     19 C16          4.2050     1.1820    -0.4550 c3         1 JLK      -0.003200
     20 C17          5.0010     1.2950     0.8580 c3         1 JLK      -0.086100
     21 S7           3.9290    -1.6050    -1.0170 ss         1 JLK      -0.186900
     22 C6           2.3260    -2.3130    -0.7350 ca         1 JLK       0.190300
     23 N3           2.0280    -3.6060    -0.9530 nb         1 JLK      -0.238000
     24 C2           0.7500    -3.9570    -0.6840 ca         1 JLK       0.175900
     25 N1          -0.2320    -3.1470    -0.2270 nb         1 JLK      -0.259000
     26 C4           0.0980    -1.8560    -0.0160 ca         1 JLK       0.447900
     27 O15         -2.9060    -3.3450     2.0250 o          1 JLK      -0.714500
     28 O14         -1.9180    -1.8380     3.2020 o          1 JLK      -0.714500
     29 C12         -3.0950    -0.0120     1.0670 c3         1 JLK      -0.039100
     30 C26         -3.4200     2.3120     0.1110 ca         1 JLK      -0.110000
     31 H1          -0.5800    -0.0270     0.5500 hn         1 JLK       0.486000
     32 H2          -2.7750    -1.8890     0.0560 h1         1 JLK       0.075700
     33 H3          -0.6250     4.2450     1.7310 ha         1 JLK       0.103000
     34 H4           0.6120     2.7540     3.3000 ha         1 JLK       0.117000
     35 H5           1.8130     0.7560     2.4280 ha         1 JLK       0.141000
     36 H6          -0.6640     3.7380    -0.6970 ha         1 JLK       0.102000
     37 H7           1.5050     1.6300    -2.4520 hc         1 JLK       0.043367
     38 H8           0.0450     0.6580    -2.1960 hc         1 JLK       0.043367
     39 H9          -0.0930     2.3800    -2.5660 hc         1 JLK       0.043367
     40 H10         -3.7000     4.2760    -0.7530 ha         1 JLK       0.097000
     41 H11         -3.4290     3.4840    -3.1010 ha         1 JLK       0.095000
     42 H12         -3.0070     1.0710    -3.5550 ha         1 JLK       0.097000
     43 H13         -2.8530    -0.5420    -1.6930 ha         1 JLK       0.115000
     44 H14          4.9110     1.1250    -1.2920 hc         1 JLK       0.042700
     45 H15          3.6300     2.1040    -0.6040 hc         1 JLK       0.042700
     46 H16          5.6570     2.1740     0.8330 hc         1 JLK       0.032700
     47 H17          4.3240     1.3960     1.7140 hc         1 JLK       0.032700
     48 H18          5.6230     0.4050     1.0110 hc         1 JLK       0.032700
     49 H19          0.4840    -4.9990    -0.8530 h5         1 JLK       0.031100
     50 H21         -4.1150    -0.2860     1.3630 hc         1 JLK       0.060700
     51 H22         -2.6680     0.5190     1.9260 hc         1 JLK       0.060700
     52 H23         -3.5380     2.6700     1.1310 ha         1 JLK       0.115000
@<TRIPOS>BOND
     1     1     2 1   
     2     1    26 1   
     3     1    31 1   
     4     2     3 1   
     5     2    29 1   
     6     2    32 1   
     7     3    27 1   
     8     3    28 1   
     9     4     7 ar  
    10     4     9 ar  
    11     4    16 1   
    12     5     6 ar  
    13     5     8 ar  
    14     5    33 1   
    15     6     7 ar  
    16     6    34 1   
    17     7    35 1   
    18     8     9 ar  
    19     8    36 1   
    20     9    10 1   
    21    10    37 1   
    22    10    38 1   
    23    10    39 1   
    24    11    15 ar  
    25    11    29 1   
    26    11    30 ar  
    27    12    13 ar  
    28    12    30 ar  
    29    12    40 1   
    30    13    14 ar  
    31    13    41 1   
    32    14    15 ar  
    33    14    42 1   
    34    15    43 1   
    35    16    17 1   
    36    16    18 2   
    37    17    22 ar  
    38    17    26 ar  
    39    18    19 1   
    40    18    21 1   
    41    19    20 1   
    42    19    44 1   
    43    19    45 1   
    44    20    46 1   
    45    20    47 1   
    46    20    48 1   
    47    21    22 1   
    48    22    23 ar  
    49    23    24 ar  
    50    24    25 ar  
    51    24    49 1   
    52    25    26 ar  
    53    29    50 1   
    54    29    51 1   
    55    30    52 1   
@<TRIPOS>SUBSTRUCTURE
     1 JLK         1 TEMP              0 ****  ****    0 ROOT
