@<TRIPOS>MOLECULE
JLL
  134   142     1     0     0
SMALL
abcg2


@<TRIPOS>ATOM
      1 N1          20.7690   -33.1610    34.9880 ns         1 JLL      -0.520900
      2 C7          26.4090   -37.3790    35.2650 c3         1 JLL      -0.070400
      3 C8          27.9350   -37.4660    35.4340 c3         1 JLL      -0.167400
      4 N2          28.5520   -37.6820    33.1110 ns         1 JLL      -0.480900
      5 C9          28.6270   -36.8960    34.2170 c          1 JLL       0.590100
      6 O1          29.8130   -36.1910    29.1800 o          1 JLL      -0.683200
      7 C1          22.4010   -34.5020    33.9860 c5         1 JLL       0.096700
      8 C5          24.3970   -35.9400    34.7300 c3         1 JLL      -0.062400
      9 C6          25.9010   -35.9730    34.9710 c3         1 JLL      -0.079400
     10 N3          27.0710   -35.4340    31.0380 ns         1 JLL      -0.496900
     11 C4          23.8880   -34.5620    34.3520 c5         1 JLL       0.078300
     12 C3          23.0490   -32.1910    34.7380 c5         1 JLL       0.027600
     13 O3          27.9860   -37.7230    28.5560 o          1 JLL      -0.683200
     14 C2          21.9160   -33.0280    34.1280 c5         1 JLL       0.097700
     15 N4          26.4580   -34.9900    26.8450 n7         1 JLL      -0.759400
     16 O11         29.1520   -35.7950    34.2090 o          1 JLL      -0.610100
     17 N           21.5640   -35.1990    34.9260 ns         1 JLL      -0.509900
     18 S           24.0790   -33.3370    35.6890 ss         1 JLL      -0.419000
     19 C           20.6030   -34.4150    35.4870 c          1 JLL       0.613000
     20 O           19.7530   -34.7720    36.2860 o          1 JLL      -0.591000
     21 C10         28.6410   -37.1320    31.7740 c3         1 JLL       0.072700
     22 C11         29.2530   -38.1530    30.8260 c3         1 JLL      -0.360400
     23 S1          29.3480   -37.5920    29.1070 s6         1 JLL       1.310600
     24 O2          30.3120   -38.5100    28.4770 o          1 JLL      -0.683200
     25 C12         27.2220   -36.7250    31.3650 c          1 JLL       0.586100
     26 O10         26.3040   -37.5260    31.4190 o          1 JLL      -0.606100
     27 C13         25.8020   -34.8660    30.6370 c3         1 JLL       0.136200
     28 C14         25.4590   -35.1910    29.1990 c2         1 JLL       0.002600
     29 C24         24.3850   -35.9640    28.9080 cc         1 JLL       0.096600
     30 N6          24.0190   -36.3990    27.6350 nc         1 JLL      -0.575800
     31 C27         22.9660   -37.1660    27.8000 cd         1 JLL       0.492900
     32 C26         22.5620   -37.2510    29.1980 cd         1 JLL      -0.332600
     33 C25         23.4420   -36.5110    29.8890 cc         1 JLL      -0.189000
     34 C28         22.2780   -37.8880    26.7800 cf         1 JLL      -0.335600
     35 C29         22.5500   -37.8940    25.4490 cc         1 JLL       0.178000
     36 N7          23.5080   -37.1850    24.7800 na         1 JLL      -0.658000
     37 C32         23.4300   -37.4090    23.4330 cd         1 JLL       0.190000
     38 C31         22.3610   -38.3770    23.2420 cd         1 JLL      -0.183000
     39 C30         21.8350   -38.6580    24.4470 cc         1 JLL      -0.207000
     40 C33         24.1450   -36.7730    22.4570 ce         1 JLL      -0.267800
     41 C23         25.0580   -35.7040    22.7470 cc         1 JLL       0.509900
     42 C22         25.6100   -34.8040    21.7320 cc         1 JLL      -0.305600
     43 C21         26.3840   -33.9300    22.3960 cd         1 JLL      -0.223000
     44 N5          25.4770   -35.3970    23.9540 nd         1 JLL      -0.575800
     45 C20         26.3210   -34.3070    23.8030 cd         1 JLL       0.078600
     46 C19         27.0260   -33.6660    24.7540 c2         1 JLL      -0.105200
     47 C16         27.1860   -33.9010    26.2050 c5         1 JLL       0.207900
     48 C17         26.8750   -32.6730    27.0500 c2         1 JLL      -0.263200
     49 C18         26.4440   -33.0780    28.2320 c2         1 JLL      -0.261200
     50 C15         26.4570   -34.6070    28.2530 c5         1 JLL       0.210900
     51 C34         23.8630   -37.1290    21.0250 c3         1 JLL       0.157200
     52 N8          22.6370   -36.4920    20.5800 ns         1 JLL      -0.492900
     53 C35         22.2100   -36.5880    19.3130 c          1 JLL       0.594100
     54 O9          22.9300   -36.9260    18.3900 o          1 JLL      -0.610100
     55 C36         20.7390   -36.1900    19.1100 c3         1 JLL       0.067700
     56 C37         19.7770   -37.1630    19.7950 c3         1 JLL      -0.370400
     57 S2          19.9440   -38.8950    19.3040 s6         1 JLL       1.323600
     58 O6          21.2730   -39.3330    19.7710 o          1 JLL      -0.691867
     59 N9          20.4370   -36.0380    17.7160 ns         1 JLL      -0.474900
     60 C38         20.6960   -34.8940    17.0490 c          1 JLL       0.601100
     61 O8          21.0120   -33.8570    17.6160 o          1 JLL      -0.638100
     62 C39         20.6360   -35.0110    15.5440 c3         1 JLL      -0.155400
     63 C40         21.9660   -35.5200    14.9710 c3         1 JLL      -0.065400
     64 C41         23.1690   -34.6610    15.3430 c3         1 JLL      -0.080400
     65 C42         24.4300   -35.0670    14.5900 c3         1 JLL      -0.057400
     66 C43         25.6740   -34.3730    15.1120 c5         1 JLL       0.081300
     67 S3          25.6100   -32.5600    14.9190 ss         1 JLL      -0.411000
     68 C46         27.3590   -32.4850    15.3870 c5         1 JLL       0.025600
     69 C45         28.0460   -33.6740    14.7020 c5         1 JLL       0.096700
     70 N10         28.5280   -33.3790    13.3790 ns         1 JLL      -0.520900
     71 C47         27.8270   -33.9920    12.3900 c          1 JLL       0.610000
     72 O7          28.0020   -33.8660    11.1900 o          1 JLL      -0.596000
     73 N11         26.8950   -34.7850    12.9910 ns         1 JLL      -0.503900
     74 C44         26.9840   -34.7810    14.4290 c5         1 JLL       0.093700
     75 H1          20.3170   -32.3670    35.4090 hn         1 JLL       0.333500
     76 H2          26.0930   -38.0520    34.4640 hc         1 JLL       0.044200
     77 H3          25.9410   -37.7520    36.1790 hc         1 JLL       0.044200
     78 H4          28.2190   -38.5110    35.5840 hc         1 JLL       0.058200
     79 H5          28.2530   -36.9050    36.3130 hc         1 JLL       0.058200
     80 H6          28.0270   -38.5410    33.1900 hn         1 JLL       0.309500
     81 H7          22.2630   -34.8830    32.9690 h1         1 JLL       0.074700
     82 H54         24.1560   -36.6240    33.9080 hc         1 JLL       0.055200
     83 H8          23.8640   -36.3060    35.6110 hc         1 JLL       0.055200
     84 H55         26.1690   -35.3100    35.7990 hc         1 JLL       0.055700
     85 H9          26.3950   -35.5660    34.0840 hc         1 JLL       0.055700
     86 H10         27.8930   -34.8560    30.9650 hn         1 JLL       0.337500
     87 H11         24.4540   -34.1930    33.4890 h1         1 JLL       0.078700
     88 H12         23.6460   -31.7370    33.9460 h1         1 JLL       0.073700
     89 H13         22.6730   -31.3940    35.3790 h1         1 JLL       0.073700
     90 H14         21.6330   -32.6000    33.1640 h1         1 JLL       0.074700
     91 H15         21.4620   -36.2000    34.9110 hn         1 JLL       0.339500
     92 H16         29.2940   -36.2620    31.8220 h1         1 JLL       0.096700
     93 H18         28.6880   -39.0880    30.8300 h1         1 JLL       0.082200
     94 H17         30.2700   -38.3690    31.1580 h1         1 JLL       0.082200
     95 H20         25.8880   -33.7870    30.7660 h1         1 JLL       0.041200
     96 H19         25.0300   -35.1920    31.3280 h1         1 JLL       0.041200
     97 H22         21.7230   -37.8160    29.5750 ha         1 JLL       0.187000
     98 H23         23.4530   -36.3530    30.9540 ha         1 JLL       0.184000
     99 H24         21.4530   -38.5100    27.1020 ha         1 JLL       0.179000
    100 H60         24.1710   -36.5430    25.1970 hn         1 JLL       0.574000
    101 H25         22.0340   -38.7610    22.2860 ha         1 JLL       0.251000
    102 H26         21.0120   -39.3200    24.6700 ha         1 JLL       0.206000
    103 H27         25.4170   -34.8340    20.6710 ha         1 JLL       0.207000
    104 H28         26.9590   -33.1070    21.9970 ha         1 JLL       0.187000
    105 H30         27.6260   -32.8330    24.4030 ha         1 JLL       0.158000
    106 H31         27.0560   -31.6560    26.7300 ha         1 JLL       0.180000
    107 H32         26.2000   -32.4500    29.0760 ha         1 JLL       0.177000
    108 H34         23.7760   -38.2120    20.9130 h1         1 JLL       0.062700
    109 H33         24.6900   -36.8290    20.3840 h1         1 JLL       0.062700
    110 H35         21.9830   -36.2160    21.2960 hn         1 JLL       0.308500
    111 H36         20.5880   -35.2220    19.5960 h1         1 JLL       0.066700
    112 H37         19.9020   -37.1240    20.8780 h1         1 JLL       0.077700
    113 H38         18.7530   -36.8590    19.5750 h1         1 JLL       0.077700
    114 H39         20.2790   -36.8910    17.1980 hn         1 JLL       0.360500
    115 H41         20.4110   -34.0280    15.1290 hc         1 JLL       0.054700
    116 H40         19.8360   -35.6890    15.2400 hc         1 JLL       0.054700
    117 H42         22.1350   -36.5500    15.2990 hc         1 JLL       0.045200
    118 H43         21.8670   -35.5580    13.8830 hc         1 JLL       0.045200
    119 H57         23.3600   -34.7330    16.4170 hc         1 JLL       0.061700
    120 H44         22.9390   -33.6100    15.1430 hc         1 JLL       0.061700
    121 H58         24.3080   -34.8650    13.5220 hc         1 JLL       0.048200
    122 H45         24.5800   -36.1480    14.6890 hc         1 JLL       0.048200
    123 H46         25.7790   -34.5860    16.1820 h1         1 JLL       0.086700
    124 H47         27.7930   -31.5320    15.0880 h1         1 JLL       0.074200
    125 H48         27.4500   -32.5740    16.4710 h1         1 JLL       0.074200
    126 H49         28.8540   -34.0380    15.3400 h1         1 JLL       0.070700
    127 H50         29.1210   -32.5880    13.1870 hn         1 JLL       0.331500
    128 H51         26.4950   -35.5610    12.4890 hn         1 JLL       0.335500
    129 H52         27.3050   -35.7550    14.8100 h1         1 JLL       0.069700
    130 H21         27.4410   -34.9010    28.6520 h1         1 JLL       0.124700
    131 H59         28.2660   -34.0960    26.3360 h1         1 JLL       0.097700
    132 O5          19.8240   -38.8910    17.8290 o          1 JLL      -0.691867
    133 O4          18.8360   -39.5860    19.9820 o          1 JLL      -0.691867
    134 H29         25.5050   -35.0190    26.5010 hn         1 JLL       0.436000
@<TRIPOS>BOND
     1     1    14 1   
     2     1    19 1   
     3     1    75 1   
     4     2     3 1   
     5     2     9 1   
     6     2    76 1   
     7     2    77 1   
     8     3     5 1   
     9     3    78 1   
    10     3    79 1   
    11     4     5 1   
    12     4    21 1   
    13     4    80 1   
    14     5    16 2   
    15     6    23 1   
    16     7    11 1   
    17     7    14 1   
    18     7    17 1   
    19     7    81 1   
    20     8     9 1   
    21     8    11 1   
    22     8    82 1   
    23     8    83 1   
    24     9    84 1   
    25     9    85 1   
    26    10    25 1   
    27    10    27 1   
    28    10    86 1   
    29    11    18 1   
    30    11    87 1   
    31    12    14 1   
    32    12    18 1   
    33    12    88 1   
    34    12    89 1   
    35    13    23 1   
    36    14    90 1   
    37    15    47 1   
    38    15    50 1   
    39    15   134 1   
    40    17    19 1   
    41    17    91 1   
    42    19    20 2   
    43    21    22 1   
    44    21    25 1   
    45    21    92 1   
    46    22    23 1   
    47    22    93 1   
    48    22    94 1   
    49    23    24 1   
    50    25    26 2   
    51    27    28 1   
    52    27    95 1   
    53    27    96 1   
    54    28    29 2   
    55    28    50 1   
    56    29    30 1   
    57    29    33 1   
    58    30    31 2   
    59    31    32 1   
    60    31    34 1   
    61    32    33 2   
    62    32    97 1   
    63    33    98 1   
    64    34    35 2   
    65    34    99 1   
    66    35    36 1   
    67    35    39 1   
    68    36    37 1   
    69    36   100 1   
    70    37    38 1   
    71    37    40 2   
    72    38    39 2   
    73    38   101 1   
    74    39   102 1   
    75    40    41 1   
    76    40    51 1   
    77    41    42 1   
    78    41    44 2   
    79    42    43 2   
    80    42   103 1   
    81    43    45 1   
    82    43   104 1   
    83    44    45 1   
    84    45    46 2   
    85    46    47 1   
    86    46   105 1   
    87    47    48 1   
    88    47   131 1   
    89    48    49 2   
    90    48   106 1   
    91    49    50 1   
    92    49   107 1   
    93    50   130 1   
    94    51    52 1   
    95    51   108 1   
    96    51   109 1   
    97    52    53 1   
    98    52   110 1   
    99    53    54 2   
   100    53    55 1   
   101    55    56 1   
   102    55    59 1   
   103    55   111 1   
   104    56    57 1   
   105    56   112 1   
   106    56   113 1   
   107    57    58 1   
   108    57   132 1   
   109    57   133 1   
   110    59    60 1   
   111    59   114 1   
   112    60    61 2   
   113    60    62 1   
   114    62    63 1   
   115    62   115 1   
   116    62   116 1   
   117    63    64 1   
   118    63   117 1   
   119    63   118 1   
   120    64    65 1   
   121    64   119 1   
   122    64   120 1   
   123    65    66 1   
   124    65   121 1   
   125    65   122 1   
   126    66    67 1   
   127    66    74 1   
   128    66   123 1   
   129    67    68 1   
   130    68    69 1   
   131    68   124 1   
   132    68   125 1   
   133    69    70 1   
   134    69    74 1   
   135    69   126 1   
   136    70    71 1   
   137    70   127 1   
   138    71    72 2   
   139    71    73 1   
   140    73    74 1   
   141    73   128 1   
   142    74   129 1   
@<TRIPOS>SUBSTRUCTURE
     1 JLL         1 TEMP              0 ****  ****    0 ROOT
