@<TRIPOS>MOLECULE
JLL
  134   142     1     0     0
SMALL
No Charge or Current Charge


@<TRIPOS>ATOM
      1 N1          20.8000   -32.3600    40.0140 ns         1 JLL      -0.520900
      2 C7          24.8480   -37.1150    36.6690 c3         1 JLL      -0.070400
      3 C8          26.2980   -37.6200    36.4500 c3         1 JLL      -0.167400
      4 N2          27.0050   -37.4940    34.1060 ns         1 JLL      -0.480900
      5 C9          27.0260   -36.8640    35.3300 c          1 JLL       0.590100
      6 O1          29.6550   -36.0220    30.9950 o          1 JLL      -0.683200
      7 C1          21.6510   -33.1840    37.9540 c5         1 JLL       0.096700
      8 C5          23.2770   -35.2170    37.4320 c3         1 JLL      -0.062400
      9 C6          24.7400   -35.6570    37.1800 c3         1 JLL      -0.079400
     10 N3          26.7510   -35.7020    30.8870 ns         1 JLL      -0.496900
     11 C4          23.1220   -33.7390    37.8840 c5         1 JLL       0.078300
     12 C3          23.0830   -31.7690    39.5380 c5         1 JLL       0.027600
     13 O3          28.6670   -37.9580    29.8170 o          1 JLL      -0.683200
     14 C2          21.6540   -31.9180    38.9080 c5         1 JLL       0.097700
     15 N4          26.5920   -35.2400    26.3770 n7         1 JLL      -0.759400
     16 O11         27.5950   -35.7950    35.5130 o          1 JLL      -0.610100
     17 N           20.8510   -34.1500    38.7210 ns         1 JLL      -0.509900
     18 S           23.8330   -33.4620    39.5720 ss         1 JLL      -0.419000
     19 C           20.3940   -33.6450    39.8890 c          1 JLL       0.613000
     20 O           19.7070   -34.2470    40.6920 o          1 JLL      -0.591000
     21 C10         27.5960   -36.9600    32.8630 c3         1 JLL       0.072700
     22 C11         28.6870   -37.9620    32.3950 c3         1 JLL      -0.360400
     23 S1          29.5540   -37.4840    30.8860 s6         1 JLL       1.310600
     24 O2          30.8330   -38.2000    30.9810 o          1 JLL      -0.683200
     25 C12         26.4560   -36.6650    31.8280 c          1 JLL       0.586100
     26 O10         25.3520   -37.1940    31.8860 o          1 JLL      -0.606100
     27 C13         25.8210   -35.1930    29.8720 c3         1 JLL       0.136200
     28 C14         25.8730   -36.0050    28.5810 c2         1 JLL       0.002600
     29 C24         24.8990   -36.9200    28.2530 cc         1 JLL       0.096600
     30 N6          24.8930   -37.6490    27.0830 nc         1 JLL      -0.575800
     31 C27         23.7960   -38.3930    27.1170 cd         1 JLL       0.492900
     32 C26         23.0710   -38.2110    28.3270 cd         1 JLL      -0.332600
     33 C25         23.7660   -37.2770    29.0400 cc         1 JLL      -0.189000
     34 C28         23.4360   -39.2380    25.9870 cf         1 JLL      -0.335600
     35 C29         23.6380   -39.0340    24.6580 cc         1 JLL       0.178000
     36 N7          24.3580   -38.0080    24.1030 na         1 JLL      -0.658000
     37 C32         24.3060   -38.0340    22.7270 cd         1 JLL       0.190000
     38 C31         23.5160   -39.1710    22.3740 cd         1 JLL      -0.183000
     39 C30         23.1230   -39.7660    23.5520 cc         1 JLL      -0.207000
     40 C33         24.8320   -37.0910    21.8690 ce         1 JLL      -0.267800
     41 C23         25.5530   -35.8700    22.2340 cc         1 JLL       0.509900
     42 C22         25.5320   -34.6450    21.5130 cc         1 JLL      -0.305600
     43 C21         26.2160   -33.7320    22.2590 cd         1 JLL      -0.223000
     44 N5          26.2100   -35.7780    23.3820 nd         1 JLL      -0.575800
     45 C20         26.6160   -34.4510    23.4220 cd         1 JLL       0.078600
     46 C19         27.3190   -33.9360    24.4770 c2         1 JLL      -0.105200
     47 C16         27.7950   -34.7950    25.6460 c5         1 JLL       0.207900
     48 C17         28.4350   -34.0690    26.8010 c2         1 JLL      -0.263200
     49 C18         28.0430   -34.6230    27.9510 c2         1 JLL      -0.261200
     50 C15         27.0970   -35.7750    27.6690 c5         1 JLL       0.210900
     51 C34         24.7370   -37.3090    20.3700 c3         1 JLL       0.157200
     52 N8          23.4310   -36.9160    19.8560 ns         1 JLL      -0.492900
     53 C35         23.0830   -36.9460    18.5230 c          1 JLL       0.594100
     54 O9          23.8890   -37.2730    17.6580 o          1 JLL      -0.610100
     55 C36         21.6110   -36.5030    18.2210 c3         1 JLL       0.067700
     56 C37         20.5130   -37.3580    18.9160 c3         1 JLL      -0.370400
     57 S2          20.5340   -39.1210    18.5110 s6         1 JLL       1.323600
     58 O6          21.7820   -39.6090    19.1090 o          1 JLL      -0.691867
     59 N9          21.3580   -36.4420    16.7720 ns         1 JLL      -0.474900
     60 C38         21.5140   -35.3280    15.9830 c          1 JLL       0.601100
     61 O8          21.8520   -34.2450    16.4400 o          1 JLL      -0.638100
     62 C39         21.1890   -35.5420    14.4980 c3         1 JLL      -0.155400
     63 C40         22.4560   -35.7170    13.6200 c3         1 JLL      -0.065400
     64 C41         23.3380   -34.4510    13.5030 c3         1 JLL      -0.080400
     65 C42         24.5410   -34.6390    12.5480 c3         1 JLL      -0.057400
     66 C43         25.4720   -33.4000    12.4380 c5         1 JLL       0.081300
     67 S3          24.6150   -31.9730    11.6260 ss         1 JLL      -0.411000
     68 C46         26.2490   -31.1030    11.5740 c5         1 JLL       0.025600
     69 C45         27.3170   -32.1730    11.1660 c5         1 JLL       0.096700
     70 N10         27.2190   -32.2630     9.7060 ns         1 JLL      -0.520900
     71 C47         26.6900   -33.4330     9.2830 c          1 JLL       0.610000
     72 O7          26.4780   -33.7290     8.1230 o          1 JLL      -0.596000
     73 N11         26.4550   -34.2310    10.3480 ns         1 JLL      -0.503900
     74 C44         26.8060   -33.6010    11.6270 c5         1 JLL       0.093700
     75 H1          20.5400   -31.8310    40.8370 hn         1 JLL       0.333500
     76 H2          24.2890   -37.2100    35.7280 hc         1 JLL       0.044200
     77 H3          24.3560   -37.7790    37.3920 hc         1 JLL       0.044200
     78 H4          26.2270   -38.6840    36.1860 hc         1 JLL       0.058200
     79 H5          26.8580   -37.5050    37.3870 hc         1 JLL       0.058200
     80 H6          26.4810   -38.3610    34.0500 hn         1 JLL       0.309500
     81 H7          21.2230   -32.9750    36.9630 h1         1 JLL       0.074700
     82 H54         22.7060   -35.3670    36.5060 hc         1 JLL       0.055200
     83 H8          22.8370   -35.8890    38.1810 hc         1 JLL       0.055200
     84 H55         25.3190   -35.5590    38.1080 hc         1 JLL       0.055700
     85 H9          25.1890   -34.9750    36.4480 hc         1 JLL       0.055700
     86 H10         27.7100   -35.3620    30.8820 hn         1 JLL       0.337500
     87 H11         23.6920   -33.1170    37.1780 h1         1 JLL       0.078700
     88 H12         23.7100   -31.1230    38.9070 h1         1 JLL       0.073700
     89 H13         23.0610   -31.3270    40.5430 h1         1 JLL       0.073700
     90 H14         21.2940   -30.9980    38.4230 h1         1 JLL       0.074700
     91 H15         20.6280   -35.1040    38.4660 hn         1 JLL       0.339500
     92 H16         28.0750   -35.9940    33.0800 h1         1 JLL       0.096700
     93 H18         28.2650   -38.9540    32.2070 h1         1 JLL       0.082200
     94 H17         29.4610   -38.0390    33.1650 h1         1 JLL       0.082200
     95 H20         26.0830   -34.1490    29.6620 h1         1 JLL       0.041200
     96 H19         24.8080   -35.1720    30.2910 h1         1 JLL       0.041200
     97 H22         22.1430   -38.6990    28.6030 ha         1 JLL       0.187000
     98 H23         23.5060   -36.8790    30.0170 ha         1 JLL       0.184000
     99 H24         22.7800   -40.0720    26.2250 ha         1 JLL       0.179000
    100 H60         24.8790   -37.3100    24.6400 hn         1 JLL       0.574000
    101 H25         23.2440   -39.4890    21.3710 ha         1 JLL       0.251000
    102 H26         22.4900   -40.6440    23.6460 ha         1 JLL       0.206000
    103 H27         25.0260   -34.4830    20.5670 ha         1 JLL       0.207000
    104 H28         26.3950   -32.6830    22.0320 ha         1 JLL       0.187000
    105 H30         27.6040   -32.8860    24.4510 ha         1 JLL       0.158000
    106 H31         29.1330   -33.2350    26.7150 ha         1 JLL       0.180000
    107 H32         28.3900   -34.3060    28.9360 ha         1 JLL       0.177000
    108 H34         24.9060   -38.3690    20.1350 h1         1 JLL       0.062700
    109 H33         25.5160   -36.7390    19.8460 h1         1 JLL       0.062700
    110 H35         22.7130   -36.6450    20.5150 hn         1 JLL       0.308500
    111 H36         21.5210   -35.4850    18.6240 h1         1 JLL       0.066700
    112 H37         20.6090   -37.3000    20.0050 h1         1 JLL       0.077700
    113 H38         19.5210   -36.9940    18.6300 h1         1 JLL       0.077700
    114 H39         21.0770   -37.3020    16.3100 hn         1 JLL       0.360500
    115 H41         20.6210   -34.6800    14.1270 hc         1 JLL       0.054700
    116 H40         20.5900   -36.4540    14.3840 hc         1 JLL       0.054700
    117 H42         23.0570   -36.5450    14.0180 hc         1 JLL       0.045200
    118 H43         22.1380   -36.0180    12.6140 hc         1 JLL       0.045200
    119 H57         23.7150   -34.1720    14.4940 hc         1 JLL       0.061700
    120 H44         22.7190   -33.6170    13.1500 hc         1 JLL       0.061700
    121 H58         24.1580   -34.9100    11.5570 hc         1 JLL       0.048200
    122 H45         25.1290   -35.4960    12.8990 hc         1 JLL       0.048200
    123 H46         25.7320   -33.0930    13.4610 h1         1 JLL       0.086700
    124 H47         26.2180   -30.2490    10.8840 h1         1 JLL       0.074200
    125 H48         26.4670   -30.7120    12.5760 h1         1 JLL       0.074200
    126 H49         28.3300   -31.9310    11.5160 h1         1 JLL       0.070700
    127 H50         27.4520   -31.5450     9.0310 hn         1 JLL       0.331500
    128 H51         26.0620   -35.1530    10.2060 hn         1 JLL       0.335500
    129 H52         27.5630   -34.1700    12.1830 h1         1 JLL       0.069700
    130 H21         27.6510   -36.7170    27.5290 h1         1 JLL       0.124700
    131 H59         28.4060   -35.6450    25.3040 h1         1 JLL       0.097700
    132 O5          20.5030   -39.1430    17.0420 o          1 JLL      -0.691867
    133 O4          19.3140   -39.6290    19.1540 o          1 JLL      -0.691867
    134 H29         26.0450   -34.4050    26.5870 hn         1 JLL       0.436000
@<TRIPOS>BOND
     1     1    14 1   
     2     1    19 1   
     3     1    75 1   
     4     2     3 1   
     5     2     9 1   
     6     2    76 1   
     7     2    77 1   
     8     3     5 1   
     9     3    78 1   
    10     3    79 1   
    11     4     5 1   
    12     4    21 1   
    13     4    80 1   
    14     5    16 2   
    15     6    23 1   
    16     7    11 1   
    17     7    14 1   
    18     7    17 1   
    19     7    81 1   
    20     8     9 1   
    21     8    11 1   
    22     8    82 1   
    23     8    83 1   
    24     9    84 1   
    25     9    85 1   
    26    10    25 1   
    27    10    27 1   
    28    10    86 1   
    29    11    18 1   
    30    11    87 1   
    31    12    14 1   
    32    12    18 1   
    33    12    88 1   
    34    12    89 1   
    35    13    23 1   
    36    14    90 1   
    37    15    47 1   
    38    15    50 1   
    39    15   134 1   
    40    17    19 1   
    41    17    91 1   
    42    19    20 2   
    43    21    22 1   
    44    21    25 1   
    45    21    92 1   
    46    22    23 1   
    47    22    93 1   
    48    22    94 1   
    49    23    24 1   
    50    25    26 2   
    51    27    28 1   
    52    27    95 1   
    53    27    96 1   
    54    28    29 2   
    55    28    50 1   
    56    29    30 1   
    57    29    33 1   
    58    30    31 2   
    59    31    32 1   
    60    31    34 1   
    61    32    33 2   
    62    32    97 1   
    63    33    98 1   
    64    34    35 2   
    65    34    99 1   
    66    35    36 1   
    67    35    39 1   
    68    36    37 1   
    69    36   100 1   
    70    37    38 1   
    71    37    40 2   
    72    38    39 2   
    73    38   101 1   
    74    39   102 1   
    75    40    41 1   
    76    40    51 1   
    77    41    42 1   
    78    41    44 2   
    79    42    43 2   
    80    42   103 1   
    81    43    45 1   
    82    43   104 1   
    83    44    45 1   
    84    45    46 2   
    85    46    47 1   
    86    46   105 1   
    87    47    48 1   
    88    47   131 1   
    89    48    49 2   
    90    48   106 1   
    91    49    50 1   
    92    49   107 1   
    93    50   130 1   
    94    51    52 1   
    95    51   108 1   
    96    51   109 1   
    97    52    53 1   
    98    52   110 1   
    99    53    54 2   
   100    53    55 1   
   101    55    56 1   
   102    55    59 1   
   103    55   111 1   
   104    56    57 1   
   105    56   112 1   
   106    56   113 1   
   107    57    58 1   
   108    57   132 1   
   109    57   133 1   
   110    59    60 1   
   111    59   114 1   
   112    60    61 2   
   113    60    62 1   
   114    62    63 1   
   115    62   115 1   
   116    62   116 1   
   117    63    64 1   
   118    63   117 1   
   119    63   118 1   
   120    64    65 1   
   121    64   119 1   
   122    64   120 1   
   123    65    66 1   
   124    65   121 1   
   125    65   122 1   
   126    66    67 1   
   127    66    74 1   
   128    66   123 1   
   129    67    68 1   
   130    68    69 1   
   131    68   124 1   
   132    68   125 1   
   133    69    70 1   
   134    69    74 1   
   135    69   126 1   
   136    70    71 1   
   137    70   127 1   
   138    71    72 2   
   139    71    73 1   
   140    73    74 1   
   141    73   128 1   
   142    74   129 1   
@<TRIPOS>SUBSTRUCTURE
     1 JLL         1 TEMP              0 ****  ****    0 ROOT
