@<TRIPOS>MOLECULE
JLM
   20    21     1     0     0
SMALL
abcg2


@<TRIPOS>ATOM
      1 C10          0.9700    -0.6080     0.0070 ca         1 JLM      -0.107800
      2 C01         -0.8710    -2.4230     0.0010 c3         1 JLM      -0.003900
      3 C02         -0.4120    -1.0070    -0.0050 cc         1 JLM      -0.175400
      4 C03         -1.1280     0.1490    -0.0190 cd         1 JLM       0.013900
      5 O04         -0.2980     1.2420    -0.0180 os         1 JLM      -0.144200
      6 C05          0.9650     0.7870    -0.0030 ca         1 JLM       0.044100
      7 C06          2.1210     1.5500     0.0060 ca         1 JLM      -0.108000
      8 C07          3.3210     0.8560     0.0250 ca         1 JLM      -0.129000
      9 C08          3.3560    -0.5450     0.0350 ca         1 JLM      -0.155000
     10 C09          2.1880    -1.2890     0.0260 ca         1 JLM      -0.078000
     11 C11         -2.6050     0.4450    -0.0280 c          1 JLM       0.734200
     12 O12         -3.3590    -0.5460    -0.0310 o          1 JLM      -0.693500
     13 O13         -2.9220     1.6450    -0.0290 o          1 JLM      -0.693500
     14 H011        -0.4970    -2.9460     0.8840 hc         1 JLM       0.032700
     15 H012        -1.9540    -2.4900    -0.0060 hc         1 JLM       0.032700
     16 H013        -0.4840    -2.9580    -0.8690 hc         1 JLM       0.032700
     17 H061         2.0930     2.6320    -0.0010 ha         1 JLM       0.116000
     18 H071         4.2510     1.4100     0.0340 ha         1 JLM       0.090000
     19 H081         4.3130    -1.0500     0.0510 ha         1 JLM       0.089000
     20 H091         2.2230    -2.3720     0.0340 ha         1 JLM       0.102000
@<TRIPOS>BOND
     1     1     3 1   
     2     1     6 ar  
     3     1    10 ar  
     4     2     3 1   
     5     2    14 1   
     6     2    15 1   
     7     2    16 1   
     8     3     4 2   
     9     4     5 1   
    10     4    11 1   
    11     5     6 1   
    12     6     7 ar  
    13     7     8 ar  
    14     7    17 1   
    15     8     9 ar  
    16     8    18 1   
    17     9    10 ar  
    18     9    19 1   
    19    10    20 1   
    20    11    12 1   
    21    11    13 1   
@<TRIPOS>SUBSTRUCTURE
     1 JLM         1 TEMP              0 ****  ****    0 ROOT
