@<TRIPOS>MOLECULE
JLM
   20    21     1     0     0
SMALL
No Charge or Current Charge


@<TRIPOS>ATOM
      1 C10          0.9820    -0.5490     0.0300 ca         1 JLM      -0.107800
      2 C01         -0.8950    -2.4230     0.0100 c3         1 JLM      -0.003900
      3 C02         -0.4020    -0.9980    -0.0180 cc         1 JLM      -0.175400
      4 C03         -1.1330     0.1960    -0.0940 cd         1 JLM       0.013900
      5 O04         -0.2830     1.2810    -0.0930 os         1 JLM      -0.144200
      6 C05          0.9920     0.8260    -0.0180 ca         1 JLM       0.044100
      7 C06          2.1730     1.5760     0.0100 ca         1 JLM      -0.108000
      8 C07          3.3910     0.8670     0.0920 ca         1 JLM      -0.129000
      9 C08          3.3920    -0.5490     0.1420 ca         1 JLM      -0.155000
     10 C09          2.1800    -1.2740     0.1120 ca         1 JLM      -0.078000
     11 C11         -2.6260     0.3770    -0.1700 c          1 JLM       0.734200
     12 O12         -3.3550    -0.6070    -0.1690 o          1 JLM      -0.693500
     13 O13         -3.0710     1.5180    -0.2310 o          1 JLM      -0.693500
     14 H011        -0.0650    -3.1350     0.0740 hc         1 JLM       0.032700
     15 H012        -1.5460    -2.5930     0.8750 hc         1 JLM       0.032700
     16 H013        -1.4640    -2.6570    -0.8980 hc         1 JLM       0.032700
     17 H061         2.1510     2.6620    -0.0300 ha         1 JLM       0.116000
     18 H071         4.3330     1.4110     0.1160 ha         1 JLM       0.090000
     19 H081         4.3370    -1.0850     0.2050 ha         1 JLM       0.089000
     20 H091         2.1810    -2.3610     0.1500 ha         1 JLM       0.102000
@<TRIPOS>BOND
     1     1     3 1   
     2     1     6 ar  
     3     1    10 ar  
     4     2     3 1   
     5     2    14 1   
     6     2    15 1   
     7     2    16 1   
     8     3     4 2   
     9     4     5 1   
    10     4    11 1   
    11     5     6 1   
    12     6     7 ar  
    13     7     8 ar  
    14     7    17 1   
    15     8     9 ar  
    16     8    18 1   
    17     9    10 ar  
    18     9    19 1   
    19    10    20 1   
    20    11    12 1   
    21    11    13 1   
@<TRIPOS>SUBSTRUCTURE
     1 JLM         1 TEMP              0 ****  ****    0 ROOT
