@<TRIPOS>MOLECULE
JLO
   41    43     1     0     0
SMALL
abcg2


@<TRIPOS>ATOM
      1 C2           1.4790    -1.1470     0.1210 ca         1 JLO      -0.162300
      2 C3           2.4520    -0.1150     0.1490 ca         1 JLO       0.367000
      3 C4           2.0140     1.2280     0.1600 ca         1 JLO      -0.162300
      4 C5           0.6610     1.5020     0.1110 ca         1 JLO      -0.042000
      5 C6          -0.3130     0.5000     0.0710 ca         1 JLO      -0.129800
      6 C1           0.1400    -0.8250     0.0770 ca         1 JLO      -0.042000
      7 C17          3.0110     2.3520     0.2300 c6         1 JLO      -0.020600
      8 C16          4.3560     1.9170    -0.3240 c6         1 JLO      -0.087400
      9 C15          4.7800     0.6190     0.3350 c6         1 JLO       0.227300
     10 N1           3.7860    -0.4160     0.1440 nh         1 JLO      -0.820400
     11 C12          1.9030    -2.5910     0.1510 c6         1 JLO      -0.020600
     12 C13          3.3190    -2.7600    -0.3700 c6         1 JLO      -0.087400
     13 C14          4.2360    -1.7790     0.3340 c6         1 JLO       0.227300
     14 C7          -1.7100     0.8730     0.0170 ce         1 JLO      -0.095200
     15 C8          -2.7720     0.0400    -0.0040 cf         1 JLO      -0.228000
     16 C9          -4.1520     0.4660    -0.0660 cf         1 JLO       0.016800
     17 C10         -5.1140    -0.4970    -0.0730 ce         1 JLO      -0.342200
     18 C11         -6.5390    -0.2700    -0.1330 c          1 JLO       0.572100
     19 C18         -4.4410     1.9360    -0.1180 c3         1 JLO      -0.072900
     20 H1           0.3460     2.5410     0.1060 ha         1 JLO       0.108000
     21 H2          -0.5740    -1.6400     0.0480 ha         1 JLO       0.108000
     22 H3           2.6330     3.2210    -0.3120 hc         1 JLO       0.048200
     23 H4           3.1350     2.6720     1.2700 hc         1 JLO       0.048200
     24 H5           4.2910     1.7720    -1.4050 hc         1 JLO       0.053200
     25 H6           5.1160     2.6790    -0.1440 hc         1 JLO       0.053200
     26 H7           5.7180     0.2660    -0.0990 h1         1 JLO       0.037450
     27 H8           4.9710     0.7880     1.4040 h1         1 JLO       0.037450
     28 H9           1.8540    -2.9640     1.1800 hc         1 JLO       0.048200
     29 H10          1.2020    -3.1960    -0.4270 hc         1 JLO       0.048200
     30 H11          3.6750    -3.7760    -0.1970 hc         1 JLO       0.053200
     31 H12          3.3540    -2.5830    -1.4480 hc         1 JLO       0.053200
     32 H13          5.2480    -1.8560    -0.0680 h1         1 JLO       0.037450
     33 H14          4.3020    -2.0270     1.4020 h1         1 JLO       0.037450
     34 H15         -1.8870     1.9440    -0.0090 ha         1 JLO       0.167000
     35 H16         -2.6150    -1.0330     0.0260 ha         1 JLO       0.179000
     36 H17         -4.8060    -1.5370    -0.0300 ha         1 JLO       0.192000
     37 H18         -6.8760     0.7780    -0.1820 h4         1 JLO      -0.020800
     38 H21         -3.9390     2.3920    -0.9730 hc         1 JLO       0.049367
     39 H22         -5.4990     2.1670    -0.1980 hc         1 JLO       0.049367
     40 H23         -4.0610     2.4310     0.7760 hc         1 JLO       0.049367
     41 O1          -7.3660    -1.1670    -0.1330 o          1 JLO      -0.532100
@<TRIPOS>BOND
     1     1     2 ar  
     2     1     6 ar  
     3     1    11 1   
     4     2     3 ar  
     5     2    10 1   
     6     3     4 ar  
     7     3     7 1   
     8     4     5 ar  
     9     4    20 1   
    10     5     6 ar  
    11     5    14 1   
    12     6    21 1   
    13     7     8 1   
    14     7    22 1   
    15     7    23 1   
    16     8     9 1   
    17     8    24 1   
    18     8    25 1   
    19     9    10 1   
    20     9    26 1   
    21     9    27 1   
    22    10    13 1   
    23    11    12 1   
    24    11    28 1   
    25    11    29 1   
    26    12    13 1   
    27    12    30 1   
    28    12    31 1   
    29    13    32 1   
    30    13    33 1   
    31    14    15 2   
    32    14    34 1   
    33    15    16 1   
    34    15    35 1   
    35    16    17 2   
    36    16    19 1   
    37    17    18 1   
    38    17    36 1   
    39    18    37 1   
    40    18    41 2   
    41    19    38 1   
    42    19    39 1   
    43    19    40 1   
@<TRIPOS>SUBSTRUCTURE
     1 JLO         1 TEMP              0 ****  ****    0 ROOT
