@<TRIPOS>MOLECULE
JLO
   41    43     1     0     0
SMALL
No Charge or Current Charge


@<TRIPOS>ATOM
      1 C2           1.5010    -1.1420    -0.0210 ca         1 JLO      -0.162300
      2 C3           2.4640    -0.1130     0.1060 ca         1 JLO       0.367000
      3 C4           2.0280     1.2300     0.1570 ca         1 JLO      -0.162300
      4 C5           0.6580     1.5380     0.0970 ca         1 JLO      -0.042000
      5 C6          -0.3030     0.5160    -0.0160 ca         1 JLO      -0.129800
      6 C1           0.1300    -0.8240    -0.0780 ca         1 JLO      -0.042000
      7 C17          3.0720     2.3730     0.2870 c6         1 JLO      -0.020600
      8 C16          4.5430     1.9610    -0.0620 c6         1 JLO      -0.087400
      9 C15          4.8670     0.5930     0.5710 c6         1 JLO       0.227300
     10 N1           3.8540    -0.4260     0.1820 nh         1 JLO      -0.820400
     11 C12          1.9300    -2.6110    -0.0810 c6         1 JLO      -0.020600
     12 C13          3.3910    -2.7590    -0.5500 c6         1 JLO      -0.087400
     13 C14          4.3230    -1.8330     0.2560 c6         1 JLO       0.227300
     14 C7          -1.7500     0.8790    -0.0770 ce         1 JLO      -0.095200
     15 C8          -2.8430     0.0640     0.0250 cf         1 JLO      -0.228000
     16 C9          -4.2520     0.4610    -0.0290 cf         1 JLO       0.016800
     17 C10         -5.2160    -0.4230     0.3600 ce         1 JLO      -0.342200
     18 C11         -6.6880    -0.1990     0.3720 c          1 JLO       0.572100
     19 C18         -4.5780     1.8410    -0.5920 c3         1 JLO      -0.072900
     20 H1           0.3410     2.5770     0.1440 ha         1 JLO       0.108000
     21 H2          -0.5910    -1.6300    -0.1770 ha         1 JLO       0.108000
     22 H3           2.7770     3.2220    -0.3440 hc         1 JLO       0.048200
     23 H4           3.0470     2.7450     1.3210 hc         1 JLO       0.048200
     24 H5           4.6560     1.8900    -1.1530 hc         1 JLO       0.053200
     25 H6           5.2520     2.7240     0.2850 hc         1 JLO       0.053200
     26 H7           5.8730     0.2850     0.2480 h1         1 JLO       0.037450
     27 H8           4.8900     0.6940     1.6660 h1         1 JLO       0.037450
     28 H9           1.8160    -3.0590     0.9150 hc         1 JLO       0.048200
     29 H10          1.2700    -3.1750    -0.7540 hc         1 JLO       0.048200
     30 H11          3.7180    -3.8030    -0.4500 hc         1 JLO       0.053200
     31 H12          3.4630    -2.5070    -1.6170 hc         1 JLO       0.053200
     32 H13          5.3430    -1.9220    -0.1470 h1         1 JLO       0.037450
     33 H14          4.3500    -2.1640     1.3050 h1         1 JLO       0.037450
     34 H15         -1.9170     1.9490    -0.1990 ha         1 JLO       0.167000
     35 H16         -2.6660    -0.9980     0.1920 ha         1 JLO       0.179000
     36 H17         -4.9160    -1.4040     0.7220 ha         1 JLO       0.192000
     37 H18         -7.0540     0.7970     0.0450 h4         1 JLO      -0.020800
     38 H21         -3.8480     2.1580    -1.3460 hc         1 JLO       0.049367
     39 H22         -5.5490     1.8670    -1.0980 hc         1 JLO       0.049367
     40 H23         -4.5930     2.5970     0.2020 hc         1 JLO       0.049367
     41 O1          -7.4770    -1.0640     0.7320 o          1 JLO      -0.532100
@<TRIPOS>BOND
     1     1     2 ar  
     2     1     6 ar  
     3     1    11 1   
     4     2     3 ar  
     5     2    10 1   
     6     3     4 ar  
     7     3     7 1   
     8     4     5 ar  
     9     4    20 1   
    10     5     6 ar  
    11     5    14 1   
    12     6    21 1   
    13     7     8 1   
    14     7    22 1   
    15     7    23 1   
    16     8     9 1   
    17     8    24 1   
    18     8    25 1   
    19     9    10 1   
    20     9    26 1   
    21     9    27 1   
    22    10    13 1   
    23    11    12 1   
    24    11    28 1   
    25    11    29 1   
    26    12    13 1   
    27    12    30 1   
    28    12    31 1   
    29    13    32 1   
    30    13    33 1   
    31    14    15 2   
    32    14    34 1   
    33    15    16 1   
    34    15    35 1   
    35    16    17 2   
    36    16    19 1   
    37    17    18 1   
    38    17    36 1   
    39    18    37 1   
    40    18    41 2   
    41    19    38 1   
    42    19    39 1   
    43    19    40 1   
@<TRIPOS>SUBSTRUCTURE
     1 JLO         1 TEMP              0 ****  ****    0 ROOT
