@<TRIPOS>MOLECULE
JLP
   41    41     1     0     0
SMALL
bcc


@<TRIPOS>ATOM
      1 N           -5.8880     0.3300    -1.3790 n8         1 JLP      -0.890800
      2 CA          -5.4340    -0.3740    -0.1890 c3         1 JLP       0.013500
      3 CB          -4.0200     0.0760     0.1860 c3         1 JLP      -0.050400
      4 CG          -2.9830    -0.1550    -0.9060 c3         1 JLP      -0.073400
      5 CD          -1.5830     0.2520    -0.4640 c3         1 JLP      -0.079400
      6 CE          -0.5340    -0.0210    -1.5370 c3         1 JLP       0.113800
      7 NZ           0.7730     0.3830    -1.0790 n2         1 JLP      -0.641900
      8 C4A          1.6510    -0.5030    -0.8360 ce         1 JLP       0.489800
      9 C4           2.9690    -0.1430    -0.3160 ca         1 JLP      -0.237900
     10 C3           3.2780     1.2020    -0.0740 ca         1 JLP       0.096800
     11 O3           2.4160     2.1870    -0.2980 oh         1 JLP      -0.513100
     12 C5           3.9440    -1.1170    -0.0420 ca         1 JLP      -0.178600
     13 C5A          3.6750    -2.5880    -0.2740 c3         1 JLP       0.181700
     14 OP4          4.7040    -3.4300     0.1690 oh         1 JLP      -0.590800
     15 C6           5.1620    -0.6820     0.4430 ca         1 JLP       0.351200
     16 N1           5.4500     0.6010     0.6690 nb         1 JLP      -0.643000
     17 C2           4.5510     1.5340     0.4290 ca         1 JLP       0.371600
     18 C2A          4.9020     2.9640     0.6990 c3         1 JLP      -0.130400
     19 C           -6.3560    -0.2460     1.0500 c          1 JLP       0.902600
     20 O           -7.2610     0.6120     1.0130 o          1 JLP      -0.839300
     21 O1          -6.1000    -1.0100     2.0050 o          1 JLP      -0.839300
     22 H1          -6.7780    -0.0610    -1.6630 hn         1 JLP       0.326800
     23 H2          -6.1120     1.2820    -1.1090 hn         1 JLP       0.326800
     24 H4          -5.3780    -1.4400    -0.4440 h1         1 JLP       0.035700
     25 H5          -4.0380     1.1410     0.4500 hc         1 JLP       0.039700
     26 H6          -3.7140    -0.4560     1.0900 hc         1 JLP       0.039700
     27 H7          -2.9830    -1.2150    -1.1820 hc         1 JLP       0.037700
     28 H8          -3.2670     0.3950    -1.8060 hc         1 JLP       0.037700
     29 H9          -1.5660     1.3150    -0.2060 hc         1 JLP       0.045200
     30 H10         -1.3080    -0.2940     0.4430 hc         1 JLP       0.045200
     31 H11         -0.5480    -1.0830    -1.8100 h1         1 JLP       0.046700
     32 H12         -0.7760     0.5530    -2.4360 h1         1 JLP       0.046700
     33 H13          1.4340    -1.5600    -1.0090 h4         1 JLP      -0.020200
     34 H14          1.5750     1.7730    -0.6490 ho         1 JLP       0.494000
     35 H15          2.7180    -2.8610     0.1840 h1         1 JLP       0.053700
     36 H16          3.5660    -2.7660    -1.3470 h1         1 JLP       0.053700
     37 H17          4.6980    -3.4380     1.1320 ho         1 JLP       0.405000
     38 H18          5.9520    -1.3890     0.6620 h4         1 JLP       0.024100
     39 H19          4.8060     3.5810    -0.1960 hc         1 JLP       0.049700
     40 H20          4.2470     3.4000     1.4560 hc         1 JLP       0.049700
     41 H21          5.9270     3.0340     1.0550 hc         1 JLP       0.049700
@<TRIPOS>BOND
     1     1     2 1   
     2     1    22 1   
     3     1    23 1   
     4     2     3 1   
     5     2    19 1   
     6     2    24 1   
     7     3     4 1   
     8     3    25 1   
     9     3    26 1   
    10     4     5 1   
    11     4    27 1   
    12     4    28 1   
    13     5     6 1   
    14     5    29 1   
    15     5    30 1   
    16     6     7 1   
    17     6    31 1   
    18     6    32 1   
    19     7     8 2   
    20     8     9 1   
    21     8    33 1   
    22     9    10 ar  
    23     9    12 ar  
    24    10    11 1   
    25    10    17 ar  
    26    11    34 1   
    27    12    13 1   
    28    12    15 ar  
    29    13    14 1   
    30    13    35 1   
    31    13    36 1   
    32    14    37 1   
    33    15    16 ar  
    34    15    38 1   
    35    16    17 ar  
    36    17    18 1   
    37    18    39 1   
    38    18    40 1   
    39    18    41 1   
    40    19    20 1   
    41    19    21 1   
@<TRIPOS>SUBSTRUCTURE
     1 JLP         1 TEMP              0 ****  ****    0 ROOT
