@<TRIPOS>MOLECULE
JLP
   41    41     1     0     0
SMALL
No Charge or Current Charge


@<TRIPOS>ATOM
      1 N           -6.0210     0.4380    -1.1410 n8         1 JLP      -0.890800
      2 CA          -5.4260    -0.5340    -0.1460 c3         1 JLP       0.013500
      3 CB          -3.9780    -0.1190     0.2300 c3         1 JLP      -0.050400
      4 CG          -2.9730    -0.1510    -0.9480 c3         1 JLP      -0.073400
      5 CD          -1.5310     0.2090    -0.5240 c3         1 JLP      -0.079400
      6 CE          -0.5340     0.1770    -1.7020 c3         1 JLP       0.113800
      7 NZ           0.8100     0.5400    -1.2370 n2         1 JLP      -0.641900
      8 C4A          1.6430    -0.3790    -0.8500 ce         1 JLP       0.489800
      9 C4           3.0210    -0.0430    -0.3390 ca         1 JLP      -0.237900
     10 C3           3.4770     1.2950    -0.1930 ca         1 JLP       0.096800
     11 O3           2.6520     2.3400    -0.5170 oh         1 JLP      -0.513100
     12 C5           3.9450    -1.0700     0.0140 ca         1 JLP      -0.178600
     13 C5A          3.6190    -2.5550    -0.0990 c3         1 JLP       0.181700
     14 OP4          2.9090    -2.9840     1.0650 oh         1 JLP      -0.590800
     15 C6           5.2280    -0.7210     0.4870 ca         1 JLP       0.351200
     16 N1           5.6530     0.5510     0.6270 nb         1 JLP      -0.643000
     17 C2           4.7930     1.5400     0.2930 ca         1 JLP       0.371600
     18 C2A          5.3230     2.9560     0.4680 c3         1 JLP      -0.130400
     19 C           -6.2750    -0.8230     1.1700 c          1 JLP       0.902600
     20 O           -6.6930     0.1270     1.8240 o          1 JLP      -0.839300
     21 O1          -6.5870    -1.9820     1.4250 o          1 JLP      -0.839300
     22 H1          -6.9500     0.1060    -1.4230 hn         1 JLP       0.326800
     23 H2          -6.2120     1.3230    -0.6580 hn         1 JLP       0.326800
     24 H4          -5.3540    -1.4980    -0.6680 h1         1 JLP       0.035700
     25 H5          -3.9890     0.8850     0.6750 hc         1 JLP       0.039700
     26 H6          -3.6140    -0.8000     1.0100 hc         1 JLP       0.039700
     27 H7          -2.9760    -1.1530    -1.3960 hc         1 JLP       0.037700
     28 H8          -3.2980     0.5480    -1.7280 hc         1 JLP       0.037700
     29 H9          -1.5270     1.2110    -0.0770 hc         1 JLP       0.045200
     30 H10         -1.1990    -0.4920     0.2510 hc         1 JLP       0.045200
     31 H11         -0.5410    -0.8250    -2.1540 h1         1 JLP       0.046700
     32 H12         -0.8710     0.8840    -2.4720 h1         1 JLP       0.046700
     33 H13          1.3420    -1.4270    -0.8500 h4         1 JLP      -0.020200
     34 H14          1.8090     1.9290    -0.8470 ho         1 JLP       0.494000
     35 H15          3.0350    -2.7490    -1.0090 h1         1 JLP       0.053700
     36 H16          4.5510    -3.1280    -0.2010 h1         1 JLP       0.053700
     37 H17          2.1970    -2.3300     1.2230 ho         1 JLP       0.405000
     38 H18          5.9460    -1.4930     0.7630 h4         1 JLP       0.024100
     39 H19          5.3200     3.4920    -0.4870 hc         1 JLP       0.049700
     40 H20          4.7000     3.5190     1.1720 hc         1 JLP       0.049700
     41 H21          6.3500     2.9680     0.8520 hc         1 JLP       0.049700
@<TRIPOS>BOND
     1     1     2 1   
     2     1    22 1   
     3     1    23 1   
     4     2     3 1   
     5     2    19 1   
     6     2    24 1   
     7     3     4 1   
     8     3    25 1   
     9     3    26 1   
    10     4     5 1   
    11     4    27 1   
    12     4    28 1   
    13     5     6 1   
    14     5    29 1   
    15     5    30 1   
    16     6     7 1   
    17     6    31 1   
    18     6    32 1   
    19     7     8 2   
    20     8     9 1   
    21     8    33 1   
    22     9    10 ar  
    23     9    12 ar  
    24    10    11 1   
    25    10    17 ar  
    26    11    34 1   
    27    12    13 1   
    28    12    15 ar  
    29    13    14 1   
    30    13    35 1   
    31    13    36 1   
    32    14    37 1   
    33    15    16 ar  
    34    15    38 1   
    35    16    17 ar  
    36    17    18 1   
    37    18    39 1   
    38    18    40 1   
    39    18    41 1   
    40    19    20 1   
    41    19    21 1   
@<TRIPOS>SUBSTRUCTURE
     1 JLP         1 TEMP              0 ****  ****    0 ROOT
