@<TRIPOS>MOLECULE
JLS
  151   151     1     0     0
SMALL
bcc


@<TRIPOS>ATOM
      1 CAA          2.5410    -3.1810     1.5570 c          1 JLS       0.684100
      2 CAB          1.3030    -2.8540     0.7480 c3         1 JLS      -0.151400
      3 CAC          0.0350    -2.7430     1.5770 c3         1 JLS      -0.063400
      4 CAD         -1.1950    -2.5010     0.7110 c3         1 JLS      -0.076400
      5 CAE         -2.4730    -2.3470     1.5250 c3         1 JLS      -0.074400
      6 CAF         -3.7150    -2.1500     0.6650 c3         1 JLS      -0.074400
      7 CAG         -4.9900    -1.9730     1.4800 c3         1 JLS      -0.074400
      8 CAH         -6.2360    -1.7990     0.6220 c3         1 JLS      -0.074400
      9 CAI         -7.5070    -1.6040     1.4380 c3         1 JLS      -0.074400
     10 CAJ         -8.7560    -1.4420     0.5820 c3         1 JLS      -0.074400
     11 CAK        -10.0220    -1.2240     1.4000 c3         1 JLS      -0.074400
     12 CAL        -11.2740    -1.0650     0.5460 c3         1 JLS      -0.074400
     13 CAM        -12.5280    -0.8050     1.3700 c3         1 JLS      -0.072400
     14 CAN        -13.7840    -0.6340     0.5120 c3         1 JLS      -0.043200
     15 CAO        -15.0020    -0.3880     1.3460 c2         1 JLS      -0.167200
     16 CAP        -15.6160     0.7770     1.5550 c2         1 JLS      -0.164200
     17 CAQ        -15.2650     2.1130     0.9790 c3         1 JLS      -0.043200
     18 CAR        -16.4560     2.7920     0.3050 c3         1 JLS      -0.072400
     19 CAS        -16.1230     4.1820    -0.2230 c3         1 JLS      -0.075400
     20 CAT        -17.3110     4.8790    -0.8740 c3         1 JLS      -0.074400
     21 CAU        -16.9760     6.2690    -1.4030 c3         1 JLS      -0.074400
     22 CAV        -18.1650     6.9700    -2.0480 c3         1 JLS      -0.075400
     23 CAW        -17.8340     8.3630    -2.5690 c3         1 JLS      -0.075400
     24 CAX        -19.0280     9.0510    -3.2170 c3         1 JLS      -0.088100
     25 OAA          2.5480    -3.2070     2.7800 o          1 JLS      -0.610100
     26 C1           5.1390    -5.2550     1.3350 c3         1 JLS       0.122400
     27 C1A          4.8530    -7.0340    -0.1900 c6         1 JLS       0.312900
     28 O1A          5.1590    -5.6930    -0.0090 os         1 JLS      -0.427600
     29 C2           4.9340    -3.7460     1.3540 c3         1 JLS       0.090700
     30 C2A          5.2370    -7.4360    -1.6170 c6         1 JLS       0.092100
     31 N2           3.6340    -3.4270     0.8150 ns         1 JLS      -0.562900
     32 O2A          6.5680    -7.1090    -1.9300 oh         1 JLS      -0.587800
     33 C3           6.0510    -2.9730     0.6230 c3         1 JLS       0.105100
     34 C3A          4.3300    -6.7370    -2.6210 c6         1 JLS       0.116100
     35 O3           7.3080    -3.4780     1.0140 oh         1 JLS      -0.578800
     36 O3A          4.5670    -7.1810    -3.9370 oh         1 JLS      -0.611800
     37 C4           5.9800    -1.4460     0.8410 c3         1 JLS       0.112100
     38 C4A          2.8670    -7.0280    -2.2900 c6         1 JLS       0.124100
     39 O4           4.8030    -0.8930     0.2920 oh         1 JLS      -0.582800
     40 O4A          2.5520    -8.3870    -2.4690 oh         1 JLS      -0.590800
     41 C5           7.2240    -0.7330     0.3120 c3         1 JLS      -0.108400
     42 C5M          2.6070    -6.6370    -0.8430 c6         1 JLS       0.149100
     43 C6           7.1900     0.7750     0.5320 c3         1 JLS      -0.073400
     44 C6A          1.1910    -6.9260    -0.3950 c3         1 JLS       0.146400
     45 O5A          3.4970    -7.3080     0.0370 os         1 JLS      -0.402600
     46 C7           8.4850     1.4570     0.1070 c3         1 JLS      -0.075400
     47 C8           8.4700     2.9620     0.3440 c3         1 JLS      -0.074400
     48 C9           9.7700     3.6510    -0.0500 c3         1 JLS      -0.074400
     49 C10          9.7510     5.1530     0.2060 c3         1 JLS      -0.074400
     50 C11         11.0540     5.8510    -0.1640 c3         1 JLS      -0.073400
     51 C12         11.0260     7.3500     0.1060 c3         1 JLS      -0.074400
     52 C13         12.3290     8.0550    -0.2480 c3         1 JLS      -0.074400
     53 C14         12.2930     9.5530     0.0290 c3         1 JLS      -0.074400
     54 C15         13.5940    10.2660    -0.3160 c3         1 JLS      -0.074400
     55 C16         13.5510    11.7630    -0.0360 c3         1 JLS      -0.075400
     56 C17         14.8490    12.4810    -0.3810 c3         1 JLS      -0.074400
     57 C18         14.7910    13.9760    -0.0970 c3         1 JLS      -0.088100
     58 H1           1.4840    -1.9200     0.2060 hc         1 JLS       0.054200
     59 H2           1.1760    -3.6260    -0.0160 hc         1 JLS       0.054200
     60 H3          -0.1070    -3.6600     2.1540 hc         1 JLS       0.055700
     61 H4           0.1350    -1.9330     2.3050 hc         1 JLS       0.055700
     62 H5          -1.0450    -1.6040     0.0990 hc         1 JLS       0.032700
     63 H6          -1.3110    -3.3310     0.0050 hc         1 JLS       0.032700
     64 H7          -2.6090    -3.2300     2.1590 hc         1 JLS       0.040200
     65 H8          -2.3660    -1.4980     2.2100 hc         1 JLS       0.040200
     66 H9          -3.5750    -1.2760     0.0180 hc         1 JLS       0.035700
     67 H10         -3.8300    -3.0070    -0.0080 hc         1 JLS       0.035700
     68 H11         -5.1220    -2.8380     2.1400 hc         1 JLS       0.038200
     69 H12         -4.8790    -1.1050     2.1410 hc         1 JLS       0.038200
     70 H13         -6.1000    -0.9410    -0.0470 hc         1 JLS       0.036700
     71 H14         -6.3530    -2.6720    -0.0300 hc         1 JLS       0.036700
     72 H15         -7.6390    -2.4570     2.1140 hc         1 JLS       0.037700
     73 H16         -7.3920    -0.7250     2.0830 hc         1 JLS       0.037700
     74 H17         -8.6190    -0.5990    -0.1040 hc         1 JLS       0.036700
     75 H18         -8.8800    -2.3280    -0.0520 hc         1 JLS       0.036700
     76 H19        -10.1590    -2.0640     2.0910 hc         1 JLS       0.037700
     77 H20         -9.8970    -0.3360     2.0290 hc         1 JLS       0.037700
     78 H21        -11.1290    -0.2400    -0.1600 hc         1 JLS       0.036700
     79 H22        -11.4160    -1.9640    -0.0640 hc         1 JLS       0.036700
     80 H23        -12.6790    -1.6260     2.0790 hc         1 JLS       0.039700
     81 H24        -12.3870     0.0960     1.9750 hc         1 JLS       0.039700
     82 H25        -13.6210     0.1780    -0.2010 hc         1 JLS       0.042700
     83 H26        -13.9300    -1.5400    -0.0850 hc         1 JLS       0.042700
     84 H27        -15.3910    -1.2590     1.8670 ha         1 JLS       0.115000
     85 H28        -16.4720     0.7800     2.2250 ha         1 JLS       0.114000
     86 H29        -14.9070     2.7630     1.7880 hc         1 JLS       0.045200
     87 H30        -14.4390     2.0330     0.2680 hc         1 JLS       0.045200
     88 H31        -16.8160     2.1650    -0.5180 hc         1 JLS       0.039200
     89 H32        -17.2840     2.8640     1.0190 hc         1 JLS       0.039200
     90 H33        -15.7460     4.8000     0.6000 hc         1 JLS       0.037200
     91 H34        -15.3030     4.1080    -0.9460 hc         1 JLS       0.037200
     92 H35        -17.6900     4.2610    -1.6960 hc         1 JLS       0.037700
     93 H36        -18.1280     4.9550    -0.1490 hc         1 JLS       0.037700
     94 H37        -16.5920     6.8850    -0.5820 hc         1 JLS       0.036700
     95 H38        -16.1610     6.1920    -2.1310 hc         1 JLS       0.036700
     96 H39        -18.5460     6.3560    -2.8720 hc         1 JLS       0.037200
     97 H40        -18.9820     7.0430    -1.3210 hc         1 JLS       0.037200
     98 H41        -17.4560     8.9770    -1.7450 hc         1 JLS       0.036700
     99 H42        -17.0160     8.2930    -3.2930 hc         1 JLS       0.036700
    100 H43        -18.7730    10.0500    -3.5720 hc         1 JLS       0.031367
    101 H44        -19.3920     8.4800    -4.0740 hc         1 JLS       0.031367
    102 H45        -19.8560     9.1510    -2.5130 hc         1 JLS       0.031367
    103 H46          4.3110    -5.7080     1.8900 h1         1 JLS       0.051700
    104 H47          6.0690    -5.5360     1.8420 h1         1 JLS       0.051700
    105 H48          5.3950    -7.6600     0.5330 h2         1 JLS       0.069700
    106 H49          4.9420    -3.4420     2.4050 h1         1 JLS       0.082700
    107 H50          5.0720    -8.5180    -1.6960 h1         1 JLS       0.063700
    108 H51          3.5440    -3.3760    -0.1860 hn         1 JLS       0.309500
    109 H52          7.1470    -7.7880    -1.5720 ho         1 JLS       0.412000
    110 H53          5.9790    -3.1680    -0.4540 h1         1 JLS       0.081700
    111 H54          4.4820    -5.6510    -2.5430 h1         1 JLS       0.062700
    112 H55          7.4460    -3.2790     1.9460 ho         1 JLS       0.399000
    113 H56          5.5190    -7.1970    -4.0830 ho         1 JLS       0.429000
    114 H57          5.9100    -1.2590     1.9220 h1         1 JLS       0.073700
    115 H58          2.2370    -6.3890    -2.9270 h1         1 JLS       0.047700
    116 H59          4.8710    -0.9340    -0.6680 ho         1 JLS       0.396000
    117 H60          2.8800    -8.6530    -3.3360 ho         1 JLS       0.422000
    118 H61          8.1120    -1.1380     0.8020 hc         1 JLS       0.050200
    119 H62          7.3430    -0.9510    -0.7570 hc         1 JLS       0.050200
    120 H63          2.7550    -5.5520    -0.7790 h1         1 JLS       0.052700
    121 H64          0.0540    -6.3910     1.0770 ho         1 JLS       0.406000
    122 H65          6.3530     1.2200    -0.0130 hc         1 JLS       0.044700
    123 H66          7.0070     0.9800     1.5930 hc         1 JLS       0.044700
    124 H67          0.5120    -6.5310    -1.1620 h1         1 JLS       0.036700
    125 H68          1.0240    -8.0090    -0.3410 h1         1 JLS       0.036700
    126 H69          9.3250     1.0130     0.6520 hc         1 JLS       0.037200
    127 H70          8.6740     1.2580    -0.9540 hc         1 JLS       0.037200
    128 H71          7.6380     3.4100    -0.2130 hc         1 JLS       0.038200
    129 H72          8.2630     3.1570     1.4020 hc         1 JLS       0.038200
    130 H73         10.6010     3.2000     0.5030 hc         1 JLS       0.036700
    131 H74          9.9770     3.4660    -1.1100 hc         1 JLS       0.036700
    132 H75          8.9250     5.6060    -0.3540 hc         1 JLS       0.037700
    133 H76          9.5310     5.3340     1.2650 hc         1 JLS       0.037700
    134 H77         11.8800     5.3960     0.3950 hc         1 JLS       0.036700
    135 H78         11.2740     5.6760    -1.2230 hc         1 JLS       0.036700
    136 H79         10.2030     7.8040    -0.4580 hc         1 JLS       0.037200
    137 H80         10.7960     7.5210     1.1630 hc         1 JLS       0.037200
    138 H81         13.1520     7.6010     0.3150 hc         1 JLS       0.036700
    139 H82         12.5600     7.8880    -1.3060 hc         1 JLS       0.036700
    140 H83         11.4700    10.0060    -0.5360 hc         1 JLS       0.036700
    141 H84         12.0570     9.7180     1.0870 hc         1 JLS       0.036700
    142 H85         14.4170     9.8140     0.2490 hc         1 JLS       0.036700
    143 H86         13.8300    10.1020    -1.3730 hc         1 JLS       0.036700
    144 H87         12.7270    12.2140    -0.6010 hc         1 JLS       0.036700
    145 H88         13.3150    11.9270     1.0210 hc         1 JLS       0.036700
    146 H89         15.6720    12.0310     0.1820 hc         1 JLS       0.036700
    147 H90         15.0830    12.3190    -1.4380 hc         1 JLS       0.036700
    148 H91         15.7290    14.4710    -0.3500 hc         1 JLS       0.031367
    149 H92         13.9970    14.4540    -0.6740 hc         1 JLS       0.031367
    150 H93         14.5880    14.1680     0.9590 hc         1 JLS       0.031367
    151 O6A          0.9840    -6.3040     0.8520 oh         1 JLS      -0.591800
@<TRIPOS>BOND
     1     1     2 1   
     2     1    25 2   
     3     1    31 1   
     4     2     3 1   
     5     2    58 1   
     6     2    59 1   
     7     3     4 1   
     8     3    60 1   
     9     3    61 1   
    10     4     5 1   
    11     4    62 1   
    12     4    63 1   
    13     5     6 1   
    14     5    64 1   
    15     5    65 1   
    16     6     7 1   
    17     6    66 1   
    18     6    67 1   
    19     7     8 1   
    20     7    68 1   
    21     7    69 1   
    22     8     9 1   
    23     8    70 1   
    24     8    71 1   
    25     9    10 1   
    26     9    72 1   
    27     9    73 1   
    28    10    11 1   
    29    10    74 1   
    30    10    75 1   
    31    11    12 1   
    32    11    76 1   
    33    11    77 1   
    34    12    13 1   
    35    12    78 1   
    36    12    79 1   
    37    13    14 1   
    38    13    80 1   
    39    13    81 1   
    40    14    15 1   
    41    14    82 1   
    42    14    83 1   
    43    15    16 2   
    44    15    84 1   
    45    16    17 1   
    46    16    85 1   
    47    17    18 1   
    48    17    86 1   
    49    17    87 1   
    50    18    19 1   
    51    18    88 1   
    52    18    89 1   
    53    19    20 1   
    54    19    90 1   
    55    19    91 1   
    56    20    21 1   
    57    20    92 1   
    58    20    93 1   
    59    21    22 1   
    60    21    94 1   
    61    21    95 1   
    62    22    23 1   
    63    22    96 1   
    64    22    97 1   
    65    23    24 1   
    66    23    98 1   
    67    23    99 1   
    68    24   100 1   
    69    24   101 1   
    70    24   102 1   
    71    26    28 1   
    72    26    29 1   
    73    26   103 1   
    74    26   104 1   
    75    27    28 1   
    76    27    30 1   
    77    27    45 1   
    78    27   105 1   
    79    29    31 1   
    80    29    33 1   
    81    29   106 1   
    82    30    32 1   
    83    30    34 1   
    84    30   107 1   
    85    31   108 1   
    86    32   109 1   
    87    33    35 1   
    88    33    37 1   
    89    33   110 1   
    90    34    36 1   
    91    34    38 1   
    92    34   111 1   
    93    35   112 1   
    94    36   113 1   
    95    37    39 1   
    96    37    41 1   
    97    37   114 1   
    98    38    40 1   
    99    38    42 1   
   100    38   115 1   
   101    39   116 1   
   102    40   117 1   
   103    41    43 1   
   104    41   118 1   
   105    41   119 1   
   106    42    44 1   
   107    42    45 1   
   108    42   120 1   
   109    43    46 1   
   110    43   122 1   
   111    43   123 1   
   112    44   124 1   
   113    44   125 1   
   114    44   151 1   
   115    46    47 1   
   116    46   126 1   
   117    46   127 1   
   118    47    48 1   
   119    47   128 1   
   120    47   129 1   
   121    48    49 1   
   122    48   130 1   
   123    48   131 1   
   124    49    50 1   
   125    49   132 1   
   126    49   133 1   
   127    50    51 1   
   128    50   134 1   
   129    50   135 1   
   130    51    52 1   
   131    51   136 1   
   132    51   137 1   
   133    52    53 1   
   134    52   138 1   
   135    52   139 1   
   136    53    54 1   
   137    53   140 1   
   138    53   141 1   
   139    54    55 1   
   140    54   142 1   
   141    54   143 1   
   142    55    56 1   
   143    55   144 1   
   144    55   145 1   
   145    56    57 1   
   146    56   146 1   
   147    56   147 1   
   148    57   148 1   
   149    57   149 1   
   150    57   150 1   
   151   121   151 1   
@<TRIPOS>SUBSTRUCTURE
     1 JLS         1 TEMP              0 ****  ****    0 ROOT
