@<TRIPOS>MOLECULE
JLS
  151   151     1     0     0
SMALL
No Charge or Current Charge


@<TRIPOS>ATOM
      1 CAA          2.0120    -1.0910     2.8680 c          1 JLS       0.617100
      2 CAB          0.8840    -0.2560     2.2520 c3         1 JLS      -0.151400
      3 CAC         -0.3330    -1.1430     1.9030 c3         1 JLS      -0.063400
      4 CAD         -1.5450    -0.3550     1.3650 c3         1 JLS      -0.076400
      5 CAE         -2.7570    -1.2690     1.0770 c3         1 JLS      -0.074400
      6 CAF         -3.9850    -0.5080     0.5330 c3         1 JLS      -0.074400
      7 CAG         -5.2040    -1.4300     0.3130 c3         1 JLS      -0.074400
      8 CAH         -6.4390    -0.6880    -0.2430 c3         1 JLS      -0.074400
      9 CAI         -7.6630    -1.6130    -0.4170 c3         1 JLS      -0.074400
     10 CAJ         -8.8950    -0.8890    -1.0010 c3         1 JLS      -0.074400
     11 CAK        -10.1270    -1.8120    -1.1330 c3         1 JLS      -0.074400
     12 CAL        -11.3480    -1.1050    -1.7600 c3         1 JLS      -0.074400
     13 CAM        -12.5910    -2.0190    -1.8520 c3         1 JLS      -0.072400
     14 CAN        -13.7990    -1.3340    -2.5230 c3         1 JLS      -0.043200
     15 CAO        -15.0240    -2.2300    -2.5430 c2         1 JLS      -0.217200
     16 CAP        -16.1000    -2.1450    -1.7400 c2         1 JLS      -0.214200
     17 CAQ        -16.3150    -1.1530    -0.6120 c3         1 JLS      -0.043200
     18 CAR        -17.0610     0.1100    -1.0880 c3         1 JLS      -0.072400
     19 CAS        -17.2410     1.1680     0.0230 c3         1 JLS      -0.075400
     20 CAT        -17.9790     2.4340    -0.4660 c3         1 JLS      -0.074400
     21 CAU        -18.1340     3.5070     0.6340 c3         1 JLS      -0.074400
     22 CAV        -18.8640     4.7760     0.1410 c3         1 JLS      -0.075400
     23 CAW        -19.0060     5.8560     1.2350 c3         1 JLS      -0.075400
     24 CAX        -19.7320     7.1230     0.7440 c3         1 JLS      -0.088100
     25 OAA          1.9630    -1.5190     4.0130 o          1 JLS      -0.610100
     26 C1           3.9760    -3.6040     2.3510 c3         1 JLS       0.145600
     27 C1A          3.2640    -5.3180     0.7430 c6         1 JLS       0.359300
     28 O1A          3.6370    -3.9480     0.9910 os         1 JLS      -0.474000
     29 C2           4.2890    -2.0820     2.4140 c3         1 JLS       0.090700
     30 C2A          3.1040    -5.5610    -0.7960 c6         1 JLS       0.115300
     31 N2           3.0990    -1.2960     2.0530 ns         1 JLS      -0.495900
     32 O2A          4.2860    -5.1530    -1.5290 oh         1 JLS      -0.710000
     33 C3           5.5620    -1.6990     1.5800 c3         1 JLS       0.128300
     34 C3A          1.8570    -4.7930    -1.3400 c6         1 JLS       0.139300
     35 O3           6.6970    -2.3810     2.1600 oh         1 JLS      -0.641000
     36 O3A          1.6530    -5.1140    -2.7300 oh         1 JLS      -0.674000
     37 C4           5.8560    -0.1560     1.4700 c3         1 JLS       0.135300
     38 C4A          0.5810    -5.1270    -0.5140 c6         1 JLS       0.147300
     39 O4           4.8190     0.5010     0.7200 oh         1 JLS      -0.645000
     40 O4A          0.1900    -6.4900    -0.7840 oh         1 JLS      -0.713000
     41 C5           7.2140     0.1750     0.7890 c3         1 JLS      -0.108400
     42 C5M          0.8810    -4.8690     0.9990 c6         1 JLS       0.172300
     43 C6           7.5890     1.6780     0.8030 c3         1 JLS      -0.073400
     44 C6A         -0.3390    -5.2120     1.9160 c3         1 JLS       0.169600
     45 O5A          2.0370    -5.6330     1.4400 os         1 JLS      -0.449000
     46 C7           8.9950     1.9490     0.2260 c3         1 JLS      -0.075400
     47 C8           9.4010     3.4370     0.2920 c3         1 JLS      -0.074400
     48 C9          10.8230     3.6940    -0.2520 c3         1 JLS      -0.074400
     49 C10         11.2500     5.1740    -0.1590 c3         1 JLS      -0.074400
     50 C11         12.6880     5.4130    -0.6700 c3         1 JLS      -0.073400
     51 C12         13.1340     6.8870    -0.5660 c3         1 JLS      -0.074400
     52 C13         14.5820     7.1060    -1.0560 c3         1 JLS      -0.074400
     53 C14         15.0440     8.5760    -0.9530 c3         1 JLS      -0.074400
     54 C15         16.4960     8.7820    -1.4370 c3         1 JLS      -0.074400
     55 C16         16.9640    10.2500    -1.3400 c3         1 JLS      -0.075400
     56 C17         18.4160    10.4530    -1.8260 c3         1 JLS      -0.074400
     57 C18         18.8860    11.9170    -1.7320 c3         1 JLS      -0.088100
     58 H1           0.5700     0.4990     2.9820 hc         1 JLS       0.054200
     59 H2           1.2340     0.2340     1.3360 hc         1 JLS       0.054200
     60 H3          -0.0310    -1.8820     1.1510 hc         1 JLS       0.055700
     61 H4          -0.6380    -1.7030     2.7970 hc         1 JLS       0.055700
     62 H5          -1.8360     0.4090     2.0970 hc         1 JLS       0.032700
     63 H6          -1.2580     0.1710     0.4450 hc         1 JLS       0.032700
     64 H7          -2.4640    -2.0420     0.3540 hc         1 JLS       0.040200
     65 H8          -3.0390    -1.7890     2.0010 hc         1 JLS       0.040200
     66 H9          -4.2580     0.2890     1.2350 hc         1 JLS       0.035700
     67 H10         -3.7200    -0.0240    -0.4160 hc         1 JLS       0.035700
     68 H11         -4.9270    -2.2340    -0.3800 hc         1 JLS       0.038200
     69 H12         -5.4690    -1.9060     1.2650 hc         1 JLS       0.038200
     70 H13         -6.7040     0.1340     0.4350 hc         1 JLS       0.036700
     71 H14         -6.1840    -0.2370    -1.2100 hc         1 JLS       0.036700
     72 H15         -7.3920    -2.4490    -1.0750 hc         1 JLS       0.037700
     73 H16         -7.9270    -2.0450     0.5560 hc         1 JLS       0.037700
     74 H17         -9.1510    -0.0370    -0.3600 hc         1 JLS       0.036700
     75 H18         -8.6390    -0.4830    -1.9880 hc         1 JLS       0.036700
     76 H19         -9.8610    -2.6810    -1.7470 hc         1 JLS       0.037700
     77 H20        -10.3990    -2.1910    -0.1400 hc         1 JLS       0.037700
     78 H21        -11.5980    -0.2180    -1.1650 hc         1 JLS       0.036700
     79 H22        -11.0830    -0.7530    -2.7650 hc         1 JLS       0.036700
     80 H23        -12.3350    -2.9250    -2.4150 hc         1 JLS       0.039700
     81 H24        -12.8760    -2.3390    -0.8420 hc         1 JLS       0.039700
     82 H25        -14.0100    -0.3930    -2.0010 hc         1 JLS       0.042700
     83 H26        -13.5310    -1.0540    -3.5490 hc         1 JLS       0.042700
     84 H27        -14.9900    -3.0010    -3.3160 ha         1 JLS       0.165000
     85 H28        -16.9240    -2.8500    -1.8680 ha         1 JLS       0.164000
     86 H29        -16.8840    -1.6290     0.1970 hc         1 JLS       0.045200
     87 H30        -15.3550    -0.8590    -0.1710 hc         1 JLS       0.045200
     88 H31        -16.5080     0.5580    -1.9230 hc         1 JLS       0.039200
     89 H32        -18.0450    -0.1800    -1.4760 hc         1 JLS       0.039200
     90 H33        -17.7970     0.7250     0.8590 hc         1 JLS       0.037200
     91 H34        -16.2550     1.4540     0.4100 hc         1 JLS       0.037200
     92 H35        -17.4310     2.8650    -1.3130 hc         1 JLS       0.037700
     93 H36        -18.9720     2.1510    -0.8370 hc         1 JLS       0.037700
     94 H37        -18.6860     3.0790     1.4800 hc         1 JLS       0.036700
     95 H38        -17.1410     3.7860     1.0070 hc         1 JLS       0.036700
     96 H39        -18.3180     5.1980    -0.7120 hc         1 JLS       0.037200
     97 H40        -19.8620     4.4980    -0.2230 hc         1 JLS       0.037200
     98 H41        -19.5550     5.4390     2.0890 hc         1 JLS       0.036700
     99 H42        -18.0100     6.1350     1.6010 hc         1 JLS       0.036700
    100 H43        -19.8070     7.8590     1.5530 hc         1 JLS       0.031367
    101 H44        -19.1860     7.5840    -0.0890 hc         1 JLS       0.031367
    102 H45        -20.7460     6.8830     0.4030 hc         1 JLS       0.031367
    103 H46          3.1400    -3.8280     3.0270 h1         1 JLS       0.051700
    104 H47          4.8450    -4.1810     2.6930 h1         1 JLS       0.051700
    105 H48          4.0630    -5.9770     1.1160 h2         1 JLS       0.069700
    106 H49          4.5140    -1.8460     3.4630 h1         1 JLS       0.082700
    107 H50          2.9370    -6.6380    -0.9400 h1         1 JLS       0.063700
    108 H51          3.0990    -0.8250     1.1550 hn         1 JLS       0.309500
    109 H52          4.6370    -4.3620    -1.0540 ho         1 JLS       0.511000
    110 H53          5.4080    -2.0630     0.5550 h1         1 JLS       0.081700
    111 H54          2.0490    -3.7140    -1.2340 h1         1 JLS       0.062700
    112 H55          6.9230    -1.9280     3.0010 ho         1 JLS       0.438000
    113 H56          2.5560    -5.1180    -3.1270 ho         1 JLS       0.468000
    114 H57          5.8840     0.2480     2.4930 h1         1 JLS       0.073700
    115 H58         -0.2210    -4.4420    -0.8270 h1         1 JLS       0.047700
    116 H59          5.0770     1.4450     0.6360 ho         1 JLS       0.435000
    117 H60          0.3710    -6.6040    -1.7480 ho         1 JLS       0.521000
    118 H61          8.0180    -0.3700     1.2970 hc         1 JLS       0.050200
    119 H62          7.1980    -0.1880    -0.2470 hc         1 JLS       0.050200
    120 H63          1.1010    -3.8020     1.1350 h1         1 JLS       0.052700
    121 H64         -0.8680    -5.3100     3.8120 ho         1 JLS       0.505000
    122 H65          6.8540     2.2540     0.2270 hc         1 JLS       0.044700
    123 H66          7.5490     2.0470     1.8360 hc         1 JLS       0.044700
    124 H67         -1.2000    -4.6250     1.5670 h1         1 JLS       0.036700
    125 H68         -0.5900    -6.2720     1.7740 h1         1 JLS       0.036700
    126 H69          9.7320     1.3530     0.7790 hc         1 JLS       0.037200
    127 H70          9.0290     1.6100    -0.8170 hc         1 JLS       0.037200
    128 H71          8.6810     4.0350    -0.2790 hc         1 JLS       0.038200
    129 H72          9.3490     3.7780     1.3340 hc         1 JLS       0.038200
    130 H73         11.5380     3.0790     0.3100 hc         1 JLS       0.036700
    131 H74         10.8740     3.3680    -1.2990 hc         1 JLS       0.036700
    132 H75         10.5520     5.7900    -0.7400 hc         1 JLS       0.037700
    133 H76         11.1800     5.5050     0.8840 hc         1 JLS       0.037700
    134 H77         13.3810     4.7870    -0.0950 hc         1 JLS       0.036700
    135 H78         12.7560     5.0890    -1.7160 hc         1 JLS       0.036700
    136 H79         12.4530     7.5140    -1.1550 hc         1 JLS       0.037200
    137 H80         13.0530     7.2170     0.4770 hc         1 JLS       0.037200
    138 H81         15.2590     6.4750    -0.4680 hc         1 JLS       0.036700
    139 H82         14.6620     6.7760    -2.1000 hc         1 JLS       0.036700
    140 H83         14.3710     9.2080    -1.5460 hc         1 JLS       0.036700
    141 H84         14.9600     8.9070     0.0900 hc         1 JLS       0.036700
    142 H85         17.1660     8.1500    -0.8420 hc         1 JLS       0.036700
    143 H86         16.5790     8.4460    -2.4780 hc         1 JLS       0.036700
    144 H87         16.2940    10.8830    -1.9350 hc         1 JLS       0.036700
    145 H88         16.8820    10.5860    -0.2990 hc         1 JLS       0.036700
    146 H89         19.0900     9.8240    -1.2310 hc         1 JLS       0.036700
    147 H90         18.5010    10.1180    -2.8670 hc         1 JLS       0.036700
    148 H91         19.9190    12.0110    -2.0870 hc         1 JLS       0.031367
    149 H92         18.2510    12.5680    -2.3460 hc         1 JLS       0.031367
    150 H93         18.8460    12.2720    -0.6940 hc         1 JLS       0.031367
    151 O6A         -0.1000    -4.9470     3.3130 oh         1 JLS      -0.714000
@<TRIPOS>BOND
     1     1     2 1   
     2     1    25 2   
     3     1    31 1   
     4     2     3 1   
     5     2    58 1   
     6     2    59 1   
     7     3     4 1   
     8     3    60 1   
     9     3    61 1   
    10     4     5 1   
    11     4    62 1   
    12     4    63 1   
    13     5     6 1   
    14     5    64 1   
    15     5    65 1   
    16     6     7 1   
    17     6    66 1   
    18     6    67 1   
    19     7     8 1   
    20     7    68 1   
    21     7    69 1   
    22     8     9 1   
    23     8    70 1   
    24     8    71 1   
    25     9    10 1   
    26     9    72 1   
    27     9    73 1   
    28    10    11 1   
    29    10    74 1   
    30    10    75 1   
    31    11    12 1   
    32    11    76 1   
    33    11    77 1   
    34    12    13 1   
    35    12    78 1   
    36    12    79 1   
    37    13    14 1   
    38    13    80 1   
    39    13    81 1   
    40    14    15 1   
    41    14    82 1   
    42    14    83 1   
    43    15    16 2   
    44    15    84 1   
    45    16    17 1   
    46    16    85 1   
    47    17    18 1   
    48    17    86 1   
    49    17    87 1   
    50    18    19 1   
    51    18    88 1   
    52    18    89 1   
    53    19    20 1   
    54    19    90 1   
    55    19    91 1   
    56    20    21 1   
    57    20    92 1   
    58    20    93 1   
    59    21    22 1   
    60    21    94 1   
    61    21    95 1   
    62    22    23 1   
    63    22    96 1   
    64    22    97 1   
    65    23    24 1   
    66    23    98 1   
    67    23    99 1   
    68    24   100 1   
    69    24   101 1   
    70    24   102 1   
    71    26    28 1   
    72    26    29 1   
    73    26   103 1   
    74    26   104 1   
    75    27    28 1   
    76    27    30 1   
    77    27    45 1   
    78    27   105 1   
    79    29    31 1   
    80    29    33 1   
    81    29   106 1   
    82    30    32 1   
    83    30    34 1   
    84    30   107 1   
    85    31   108 1   
    86    32   109 1   
    87    33    35 1   
    88    33    37 1   
    89    33   110 1   
    90    34    36 1   
    91    34    38 1   
    92    34   111 1   
    93    35   112 1   
    94    36   113 1   
    95    37    39 1   
    96    37    41 1   
    97    37   114 1   
    98    38    40 1   
    99    38    42 1   
   100    38   115 1   
   101    39   116 1   
   102    40   117 1   
   103    41    43 1   
   104    41   118 1   
   105    41   119 1   
   106    42    44 1   
   107    42    45 1   
   108    42   120 1   
   109    43    46 1   
   110    43   122 1   
   111    43   123 1   
   112    44   124 1   
   113    44   125 1   
   114    44   151 1   
   115    46    47 1   
   116    46   126 1   
   117    46   127 1   
   118    47    48 1   
   119    47   128 1   
   120    47   129 1   
   121    48    49 1   
   122    48   130 1   
   123    48   131 1   
   124    49    50 1   
   125    49   132 1   
   126    49   133 1   
   127    50    51 1   
   128    50   134 1   
   129    50   135 1   
   130    51    52 1   
   131    51   136 1   
   132    51   137 1   
   133    52    53 1   
   134    52   138 1   
   135    52   139 1   
   136    53    54 1   
   137    53   140 1   
   138    53   141 1   
   139    54    55 1   
   140    54   142 1   
   141    54   143 1   
   142    55    56 1   
   143    55   144 1   
   144    55   145 1   
   145    56    57 1   
   146    56   146 1   
   147    56   147 1   
   148    57   148 1   
   149    57   149 1   
   150    57   150 1   
   151   121   151 1   
@<TRIPOS>SUBSTRUCTURE
     1 JLS         1 TEMP              0 ****  ****    0 ROOT
