@<TRIPOS>MOLECULE
JLV
   27    27     1     0     0
SMALL
bcc


@<TRIPOS>ATOM
      1 C10         -2.6500    -1.2530     0.6410 c6         1 JLV      -0.070400
      2 C01          4.1530     0.3810     0.2970 c3         1 JLV       0.105300
      3 N02          2.7910     0.8420     0.4000 ns         1 JLV      -0.524900
      4 C03          1.7250     0.1690    -0.0500 cs         1 JLV       0.613400
      5 S04          1.8940    -1.3310    -0.8070 s          1 JLV      -0.689400
      6 N05          0.5390     0.7680     0.1260 ns         1 JLV      -0.519900
      7 C06         -0.7560     0.1920    -0.1810 c6         1 JLV       0.114700
      8 C07         -1.7450     1.3110    -0.4950 c6         1 JLV      -0.090400
      9 C08         -3.1310     0.7500    -0.8000 c6         1 JLV      -0.070400
     10 C09         -3.6390    -0.1340     0.3330 c6         1 JLV      -0.078400
     11 C11         -1.2650    -0.6950     0.9550 c6         1 JLV      -0.090400
     12 H102        -3.0060    -1.8570     1.4790 hc         1 JLV       0.045950
     13 H101        -2.5830    -1.9260    -0.2200 hc         1 JLV       0.045950
     14 H012         4.7950     1.1470     0.7260 h1         1 JLV       0.052367
     15 H013         4.3080    -0.5510     0.8420 h1         1 JLV       0.052367
     16 H011         4.4470     0.2210    -0.7390 h1         1 JLV       0.052367
     17 H021         2.6430     1.7270     0.8600 hn         1 JLV       0.299500
     18 H051         0.5250     1.6360     0.6440 hn         1 JLV       0.293500
     19 H061        -0.6310    -0.4270    -1.0730 h1         1 JLV       0.101700
     20 H072        -1.8120     1.9900     0.3630 hc         1 JLV       0.046450
     21 H071        -1.3780     1.8990    -1.3390 hc         1 JLV       0.046450
     22 H082        -3.8270     1.5710    -0.9860 hc         1 JLV       0.045950
     23 H081        -3.0890     0.1650    -1.7260 hc         1 JLV       0.045950
     24 H092        -4.6160    -0.5510     0.0760 hc         1 JLV       0.040200
     25 H091        -3.7870     0.4770     1.2310 hc         1 JLV       0.040200
     26 H112        -1.3030    -0.1050     1.8780 hc         1 JLV       0.046450
     27 H111        -0.5510    -1.5050     1.1190 hc         1 JLV       0.046450
@<TRIPOS>BOND
     1     1    10 1   
     2     1    11 1   
     3     1    12 1   
     4     1    13 1   
     5     2     3 1   
     6     2    14 1   
     7     2    15 1   
     8     2    16 1   
     9     3     4 1   
    10     3    17 1   
    11     4     5 2   
    12     4     6 1   
    13     6     7 1   
    14     6    18 1   
    15     7     8 1   
    16     7    11 1   
    17     7    19 1   
    18     8     9 1   
    19     8    20 1   
    20     8    21 1   
    21     9    10 1   
    22     9    22 1   
    23     9    23 1   
    24    10    24 1   
    25    10    25 1   
    26    11    26 1   
    27    11    27 1   
@<TRIPOS>SUBSTRUCTURE
     1 JLV         1 TEMP              0 ****  ****    0 ROOT
