@<TRIPOS>MOLECULE
JLV
   27    27     1     0     0
SMALL
No Charge or Current Charge


@<TRIPOS>ATOM
      1 C10         -2.6990    -1.2730     0.6360 c6         1 JLV      -0.070400
      2 C01          4.2310     0.4540     0.3260 c3         1 JLV       0.105300
      3 N02          2.8160     0.8290     0.3720 ns         1 JLV      -0.457900
      4 C03          1.7760     0.0630    -0.0570 cs         1 JLV       0.479400
      5 S04          1.9560    -1.4570    -0.7270 s          1 JLV      -0.689400
      6 N05          0.5790     0.6930     0.1130 ns         1 JLV      -0.452900
      7 C06         -0.7490     0.1580    -0.2140 c6         1 JLV       0.114700
      8 C07         -1.7410     1.3210    -0.4750 c6         1 JLV      -0.090400
      9 C08         -3.1630     0.7930    -0.7920 c6         1 JLV      -0.070400
     10 C09         -3.6870    -0.1160     0.3460 c6         1 JLV      -0.078400
     11 C11         -1.2800    -0.7320     0.9420 c6         1 JLV      -0.090400
     12 H102        -3.0620    -1.8700     1.4830 hc         1 JLV       0.045950
     13 H101        -2.6580    -1.9510    -0.2280 hc         1 JLV       0.045950
     14 H012         4.8410     1.2650     0.7420 h1         1 JLV       0.052367
     15 H013         4.3910    -0.4570     0.9170 h1         1 JLV       0.052367
     16 H011         4.5330     0.2720    -0.7140 h1         1 JLV       0.052367
     17 H021         2.5910     1.7390     0.7570 hn         1 JLV       0.299500
     18 H051         0.6090     1.6180     0.5230 hn         1 JLV       0.293500
     19 H061        -0.6700    -0.4490    -1.1290 h1         1 JLV       0.101700
     20 H072        -1.7820     1.9830     0.4020 hc         1 JLV       0.046450
     21 H071        -1.3830     1.9350    -1.3130 hc         1 JLV       0.046450
     22 H082        -3.8500     1.6370    -0.9400 hc         1 JLV       0.045950
     23 H081        -3.1480     0.2330    -1.7370 hc         1 JLV       0.045950
     24 H092        -4.6710    -0.5240     0.0760 hc         1 JLV       0.040200
     25 H091        -3.8350     0.4800     1.2570 hc         1 JLV       0.040200
     26 H112        -1.2990    -0.1570     1.8780 hc         1 JLV       0.046450
     27 H111        -0.5960    -1.5760     1.1100 hc         1 JLV       0.046450
@<TRIPOS>BOND
     1     1    10 1   
     2     1    11 1   
     3     1    12 1   
     4     1    13 1   
     5     2     3 1   
     6     2    14 1   
     7     2    15 1   
     8     2    16 1   
     9     3     4 1   
    10     3    17 1   
    11     4     5 2   
    12     4     6 1   
    13     6     7 1   
    14     6    18 1   
    15     7     8 1   
    16     7    11 1   
    17     7    19 1   
    18     8     9 1   
    19     8    20 1   
    20     8    21 1   
    21     9    10 1   
    22     9    22 1   
    23     9    23 1   
    24    10    24 1   
    25    10    25 1   
    26    11    26 1   
    27    11    27 1   
@<TRIPOS>SUBSTRUCTURE
     1 JLV         1 TEMP              0 ****  ****    0 ROOT
