@<TRIPOS>MOLECULE
JLW
   62    64     1     0     0
SMALL
bcc


@<TRIPOS>ATOM
      1 N1           5.5160     2.2630    -0.0130 n          1 JLW      -0.454800
      2 N3          -0.1410    -2.6940     1.2160 ne         1 JLW      -0.743300
      3 C4           4.0270     0.3350    -0.1980 ca         1 JLW      -0.206600
      4 C5           4.0290    -1.8800     0.7050 ca         1 JLW      -0.147000
      5 C6           4.7450    -0.7870     0.2360 ca         1 JLW      -0.019300
      6 C7           2.6360     0.3110    -0.2250 ca         1 JLW       0.139100
      7 C8           1.9330    -0.7950     0.2730 ca         1 JLW       0.099600
      8 C10          6.2450    -0.8360     0.1940 c3         1 JLW      -0.054800
      9 C13         -3.7460     0.0950    -0.2920 c3         1 JLW       0.213200
     10 C15         -4.0980     1.3080     0.4980 cc         1 JLW       0.206000
     11 C20         -4.8780     2.8890     1.8570 cd         1 JLW      -0.267300
     12 C21         -3.8580     3.3970     1.1240 cc         1 JLW       0.255000
     13 C22         -3.2070     4.7260     1.0780 c3         1 JLW      -0.124400
     14 C1           4.6830     1.5490    -0.7790 c          1 JLW       0.680700
     15 C11         -0.3750    -1.5650     0.6390 cf         1 JLW       0.596900
     16 C12         -1.8660    -1.2840     0.4710 cf         1 JLW       0.607900
     17 C14         -4.1380     0.1120    -1.7940 c3         1 JLW      -0.050000
     18 C16         -3.8160    -1.2640    -2.3830 c3         1 JLW      -0.088100
     19 C18         -5.6440     0.3560    -1.8880 c3         1 JLW      -0.088100
     20 C19         -5.0310     1.5260     1.4540 cd         1 JLW      -0.225300
     21 C2           6.1940     3.4050    -0.5970 c3         1 JLW       0.082800
     22 C3           5.5940     2.1640     1.4300 c3         1 JLW       0.082800
     23 C9           2.6420    -1.8890     0.7450 ca         1 JLW      -0.075000
     24 N2           0.5350    -0.6990     0.2180 nu         1 JLW      -0.651600
     25 N4          -2.6060    -2.2240     0.9570 ne         1 JLW      -0.760300
     26 N5          -2.3230    -0.1980    -0.1210 nu         1 JLW      -0.789200
     27 O1           4.4170     1.8650    -1.9400 o          1 JLW      -0.627100
     28 O2           1.8910     1.3360    -0.6840 oh         1 JLW      -0.536100
     29 O5          -3.3820     2.4380     0.2940 os         1 JLW      -0.345800
     30 S1          -1.6090    -3.3970     1.5630 sy         1 JLW       1.442800
     31 H2           4.5630    -2.7570     1.0490 ha         1 JLW       0.146000
     32 H3           6.6960    -0.2300     0.9810 hc         1 JLW       0.050700
     33 H4           6.5930    -1.8580     0.3380 hc         1 JLW       0.050700
     34 H5           6.6410    -0.4820    -0.7570 hc         1 JLW       0.050700
     35 H6          -4.2880    -0.7340     0.1650 h1         1 JLW       0.116700
     36 H7          -2.3100     1.0930    -2.5150 hc         1 JLW       0.041256
     37 H8          -3.6430     1.0880    -3.6480 hc         1 JLW       0.041256
     38 H9          -3.6710     2.1950    -2.2850 hc         1 JLW       0.041256
     39 H10         -5.4500     3.4200     2.6010 ha         1 JLW       0.163000
     40 H11         -2.1520     4.6690     1.3520 hc         1 JLW       0.055700
     41 H12         -3.2670     5.1720     0.0840 hc         1 JLW       0.055700
     42 H13         -3.6990     5.3980     1.7790 hc         1 JLW       0.055700
     43 H14         -4.2970    -2.0660    -1.8200 hc         1 JLW       0.041256
     44 H15         -4.1700    -1.3220    -3.4130 hc         1 JLW       0.041256
     45 H16         -2.7430    -1.4620    -2.4000 hc         1 JLW       0.041256
     46 H17         -5.9160     1.3560    -1.5480 hc         1 JLW       0.041256
     47 H18         -5.9740     0.2590    -2.9240 hc         1 JLW       0.041256
     48 H19         -6.2050    -0.3650    -1.2910 hc         1 JLW       0.041256
     49 H20         -5.7400     0.8050     1.8290 ha         1 JLW       0.168000
     50 H21          5.5510     4.2880    -0.6150 h1         1 JLW       0.046867
     51 H22          7.0730     3.6330     0.0030 h1         1 JLW       0.046867
     52 H23          6.5180     3.1890    -1.6110 h1         1 JLW       0.046867
     53 H24          4.9580     1.3690     1.8070 h1         1 JLW       0.046867
     54 H25          6.6200     1.9780     1.7500 h1         1 JLW       0.046867
     55 H26          5.2620     3.1000     1.8810 h1         1 JLW       0.046867
     56 H27          2.1260    -2.7550     1.1250 ha         1 JLW       0.189000
     57 H28          0.2150     0.1610    -0.2030 hn         1 JLW       0.462800
     58 H30         -1.6790     0.4960    -0.4640 hn         1 JLW       0.447800
     59 H32          2.3830     1.8450    -1.3450 ho         1 JLW       0.468000
     60 O3          -1.7600    -4.6180     0.7960 o          1 JLW      -0.599300
     61 C17         -3.3960     1.1860    -2.5900 c3         1 JLW      -0.088100
     62 O4          -1.7710    -3.4970     3.0000 o          1 JLW      -0.599300
@<TRIPOS>BOND
     1     1    14 1   
     2     1    21 1   
     3     1    22 1   
     4     2    15 2   
     5     2    30 1   
     6     3     5 ar  
     7     3     6 ar  
     8     3    14 1   
     9     4     5 ar  
    10     4    23 ar  
    11     4    31 1   
    12     5     8 1   
    13     6     7 ar  
    14     6    28 1   
    15     7    23 ar  
    16     7    24 1   
    17     8    32 1   
    18     8    33 1   
    19     8    34 1   
    20     9    10 1   
    21     9    17 1   
    22     9    26 1   
    23     9    35 1   
    24    10    20 2   
    25    10    29 1   
    26    11    12 2   
    27    11    20 1   
    28    11    39 1   
    29    12    13 1   
    30    12    29 1   
    31    13    40 1   
    32    13    41 1   
    33    13    42 1   
    34    14    27 2   
    35    15    16 1   
    36    15    24 1   
    37    16    25 2   
    38    16    26 1   
    39    17    18 1   
    40    17    19 1   
    41    17    61 1   
    42    18    43 1   
    43    18    44 1   
    44    18    45 1   
    45    19    46 1   
    46    19    47 1   
    47    19    48 1   
    48    20    49 1   
    49    21    50 1   
    50    21    51 1   
    51    21    52 1   
    52    22    53 1   
    53    22    54 1   
    54    22    55 1   
    55    23    56 1   
    56    24    57 1   
    57    25    30 1   
    58    26    58 1   
    59    28    59 1   
    60    30    60 2   
    61    30    62 2   
    62    36    61 1   
    63    37    61 1   
    64    38    61 1   
@<TRIPOS>SUBSTRUCTURE
     1 JLW         1 TEMP              0 ****  ****    0 ROOT
