@<TRIPOS>MOLECULE
JLW
   62    64     1     0     0
SMALL
No Charge or Current Charge


@<TRIPOS>ATOM
      1 N1           5.8800     2.0210    -0.5950 n          1 JLW      -0.387800
      2 N3          -0.2060    -2.7640     1.1880 ne         1 JLW      -0.743300
      3 C4           4.1170     0.2270    -0.3160 ca         1 JLW      -0.206600
      4 C5           4.0940    -1.6230     1.2790 ca         1 JLW      -0.129000
      5 C6           4.8190    -0.7140     0.4870 ca         1 JLW      -0.019300
      6 C7           2.7040     0.1590    -0.3720 ca         1 JLW       0.139100
      7 C8           1.9790    -0.7680     0.4210 ca         1 JLW       0.238000
      8 C10          6.3420    -0.8440     0.4850 c3         1 JLW      -0.054800
      9 C13         -3.8610     0.1300    -0.2050 c3         1 JLW       0.213200
     10 C15         -4.5030     1.2720     0.5560 cc         1 JLW       0.096300
     11 C20         -5.8260     2.6550     1.7110 cd         1 JLW      -0.184000
     12 C21         -4.6100     3.2530     1.5380 cc         1 JLW       0.145300
     13 C22         -4.0970     4.5920     1.9770 c3         1 JLW      -0.124400
     14 C1           4.8110     1.2810    -1.1490 c          1 JLW       0.613700
     15 C11         -0.4630    -1.5810     0.7720 cf         1 JLW       0.596900
     16 C12         -1.9240    -1.2520     0.7240 cf         1 JLW       0.607900
     17 C14         -3.8850     0.2970    -1.7690 c3         1 JLW      -0.050000
     18 C16         -3.3020    -0.9740    -2.4510 c3         1 JLW      -0.088100
     19 C18         -5.3540     0.4640    -2.2500 c3         1 JLW      -0.088100
     20 C19         -5.7580     1.3910     1.0910 cd         1 JLW      -0.142000
     21 C2           6.6830     2.9010    -1.4710 c3         1 JLW       0.082800
     22 C3           5.9020     2.3620     0.8460 c3         1 JLW       0.082800
     23 C9           2.6900    -1.6400     1.2630 ca         1 JLW      -0.057000
     24 N2           0.5730    -0.7590     0.3420 nu         1 JLW      -0.845200
     25 N4          -2.6990    -2.2170     1.0530 ne         1 JLW      -0.760300
     26 N5          -2.4850    -0.0540     0.3020 nu         1 JLW      -0.844400
     27 O1           4.4510     1.4700    -2.3060 o          1 JLW      -0.627100
     28 O2           2.0220     1.0090    -1.2110 oh         1 JLW      -0.575100
     29 O5          -3.7760     2.4140     0.8360 os         1 JLW      -0.257000
     30 S1          -1.6800    -3.4440     1.4550 sy         1 JLW       1.301200
     31 H2           4.6230    -2.3350     1.9090 ha         1 JLW       0.128000
     32 H3           6.7920    -0.2810     1.3100 hc         1 JLW       0.050700
     33 H4           6.6450    -1.8900     0.6070 hc         1 JLW       0.050700
     34 H5           6.7880    -0.5000    -0.4550 hc         1 JLW       0.050700
     35 H6          -4.4660    -0.7600     0.0270 h1         1 JLW       0.116700
     36 H7          -2.0190     1.4650    -1.9310 hc         1 JLW       0.041256
     37 H8          -3.0900     1.6260    -3.3300 hc         1 JLW       0.041256
     38 H9          -3.4810     2.4660    -1.8240 hc         1 JLW       0.041256
     39 H10         -6.6790     3.0790     2.2300 ha         1 JLW       0.145000
     40 H11         -3.2620     4.4760     2.6780 hc         1 JLW       0.055700
     41 H12         -3.7430     5.1720     1.1170 hc         1 JLW       0.055700
     42 H13         -4.8840     5.1680     2.4760 hc         1 JLW       0.055700
     43 H14         -3.8330    -1.8750    -2.1190 hc         1 JLW       0.041256
     44 H15         -3.3930    -0.9120    -3.5420 hc         1 JLW       0.041256
     45 H16         -2.2380    -1.1030    -2.2180 hc         1 JLW       0.041256
     46 H17         -5.8020     1.3850    -1.8590 hc         1 JLW       0.041256
     47 H18         -5.4050     0.5130    -3.3450 hc         1 JLW       0.041256
     48 H19         -5.9730    -0.3810    -1.9230 hc         1 JLW       0.041256
     49 H20         -6.5480     0.6480     1.0400 ha         1 JLW       0.150000
     50 H21          6.0800     3.7620    -1.7870 h1         1 JLW       0.046867
     51 H22          7.5700     3.2610    -0.9340 h1         1 JLW       0.046867
     52 H23          7.0120     2.3450    -2.3580 h1         1 JLW       0.046867
     53 H24          5.0960     1.8580     1.3930 h1         1 JLW       0.046867
     54 H25          6.8670     2.0710     1.2800 h1         1 JLW       0.046867
     55 H26          5.7740     3.4450     0.9700 h1         1 JLW       0.046867
     56 H27          2.1680    -2.3470     1.8990 ha         1 JLW       0.171000
     57 H28          0.2360    -0.0000    -0.2500 hn         1 JLW       0.518000
     58 H30         -1.9830     0.7860     0.5790 hn         1 JLW       0.503000
     59 H32          2.6890     1.3680    -1.8500 ho         1 JLW       0.507000
     60 O3          -1.8630    -4.5150     0.4740 o          1 JLW      -0.528500
     61 C17         -3.0690     1.5370    -2.2370 c3         1 JLW      -0.088100
     62 O4          -1.8100    -3.6780     2.8940 o          1 JLW      -0.528500
@<TRIPOS>BOND
     1     1    14 1   
     2     1    21 1   
     3     1    22 1   
     4     2    15 2   
     5     2    30 1   
     6     3     5 ar  
     7     3     6 ar  
     8     3    14 1   
     9     4     5 ar  
    10     4    23 ar  
    11     4    31 1   
    12     5     8 1   
    13     6     7 ar  
    14     6    28 1   
    15     7    23 ar  
    16     7    24 1   
    17     8    32 1   
    18     8    33 1   
    19     8    34 1   
    20     9    10 1   
    21     9    17 1   
    22     9    26 1   
    23     9    35 1   
    24    10    20 2   
    25    10    29 1   
    26    11    12 2   
    27    11    20 1   
    28    11    39 1   
    29    12    13 1   
    30    12    29 1   
    31    13    40 1   
    32    13    41 1   
    33    13    42 1   
    34    14    27 2   
    35    15    16 1   
    36    15    24 1   
    37    16    25 2   
    38    16    26 1   
    39    17    18 1   
    40    17    19 1   
    41    17    61 1   
    42    18    43 1   
    43    18    44 1   
    44    18    45 1   
    45    19    46 1   
    46    19    47 1   
    47    19    48 1   
    48    20    49 1   
    49    21    50 1   
    50    21    51 1   
    51    21    52 1   
    52    22    53 1   
    53    22    54 1   
    54    22    55 1   
    55    23    56 1   
    56    24    57 1   
    57    25    30 1   
    58    26    58 1   
    59    28    59 1   
    60    30    60 2   
    61    30    62 2   
    62    36    61 1   
    63    37    61 1   
    64    38    61 1   
@<TRIPOS>SUBSTRUCTURE
     1 JLW         1 TEMP              0 ****  ****    0 ROOT
