@<TRIPOS>MOLECULE
JLY
   30    32     1     0     0
SMALL
abcg2


@<TRIPOS>ATOM
      1 C13          2.8960     0.0510     0.1970 cc         1 JLY      -0.203300
      2 C15          2.6150    -2.2200    -0.7220 cc         1 JLY      -0.251000
      3 C17          1.6100    -0.2040    -0.1950 cd         1 JLY      -0.212900
      4 C01         -5.4690    -1.3140     0.4600 c3         1 JLY       0.148900
      5 C03         -3.5800     0.0180    -0.0740 ca         1 JLY       0.152100
      6 C04         -3.0840     1.2000    -0.6360 ca         1 JLY      -0.184000
      7 C05         -1.7300     1.4610    -0.6240 ca         1 JLY      -0.043500
      8 C06         -0.8230     0.5530    -0.0700 ca         1 JLY      -0.170900
      9 C07         -1.3270    -0.6180     0.4840 ca         1 JLY      -0.043500
     10 C08         -2.6900    -0.8900     0.4940 ca         1 JLY      -0.184000
     11 C09          0.6210     0.8730    -0.0400 cf         1 JLY       0.551500
     12 N10          0.9670     2.0910     0.1130 n2         1 JLY      -0.587900
     13 C11          2.3810     2.4140     0.1030 c6         1 JLY       0.106800
     14 C12          3.2780     1.3720     0.7670 c6         1 JLY      -0.029100
     15 S14          3.9080    -1.3010    -0.0550 ss         1 JLY       0.227000
     16 C16          1.4540    -1.5160    -0.7370 cd         1 JLY      -0.094000
     17 H151         2.7880    -3.2250    -1.0720 h4         1 JLY       0.152000
     18 H011        -5.1100    -2.2290    -0.0180 h1         1 JLY       0.041367
     19 H012        -5.2600    -1.3690     1.5310 h1         1 JLY       0.041367
     20 H013        -6.5450    -1.2450     0.3150 h1         1 JLY       0.041367
     21 H041        -3.7730     1.9080    -1.0800 ha         1 JLY       0.122500
     22 H051        -1.3630     2.3810    -1.0590 ha         1 JLY       0.123500
     23 H071        -0.6620    -1.3350     0.9480 ha         1 JLY       0.123500
     24 H081        -3.0320    -1.8100     0.9470 ha         1 JLY       0.122500
     25 H111         2.6960     2.5480    -0.9400 h1         1 JLY       0.061700
     26 H112         2.5170     3.3800     0.5920 h1         1 JLY       0.061700
     27 H122         3.1320     1.3700     1.8520 hc         1 JLY       0.061700
     28 H121         4.3260     1.6130     0.5860 hc         1 JLY       0.061700
     29 H161         0.5310    -1.9100    -1.1360 ha         1 JLY       0.142000
     30 O02         -4.9100    -0.1540    -0.1280 os         1 JLY      -0.340100
@<TRIPOS>BOND
     1     1     3 2   
     2     1    14 1   
     3     1    15 1   
     4     2    15 1   
     5     2    16 2   
     6     2    17 1   
     7     3    11 1   
     8     3    16 1   
     9     4    18 1   
    10     4    19 1   
    11     4    20 1   
    12     4    30 1   
    13     5     6 ar  
    14     5    10 ar  
    15     5    30 1   
    16     6     7 ar  
    17     6    21 1   
    18     7     8 ar  
    19     7    22 1   
    20     8     9 ar  
    21     8    11 1   
    22     9    10 ar  
    23     9    23 1   
    24    10    24 1   
    25    11    12 2   
    26    12    13 1   
    27    13    14 1   
    28    13    25 1   
    29    13    26 1   
    30    14    27 1   
    31    14    28 1   
    32    16    29 1   
@<TRIPOS>SUBSTRUCTURE
     1 JLY         1 TEMP              0 ****  ****    0 ROOT
