@<TRIPOS>MOLECULE
JLY
   30    32     1     0     0
SMALL
No Charge or Current Charge


@<TRIPOS>ATOM
      1 C13          2.8830     0.0030     0.2830 cc         1 JLY      -0.203300
      2 C15          2.6470    -2.2560    -0.7460 cc         1 JLY      -0.251000
      3 C17          1.6310    -0.1990    -0.2380 cd         1 JLY      -0.212900
      4 C01         -5.5460    -1.3520     0.5520 c3         1 JLY       0.148900
      5 C03         -3.6030     0.0370    -0.0670 ca         1 JLY       0.152100
      6 C04         -3.1340     1.2130    -0.6690 ca         1 JLY      -0.184000
      7 C05         -1.7580     1.4900    -0.7230 ca         1 JLY      -0.043500
      8 C06         -0.8210     0.5770    -0.1890 ca         1 JLY      -0.170900
      9 C07         -1.3000    -0.5920     0.4420 ca         1 JLY      -0.043500
     10 C08         -2.6780    -0.8670     0.4960 ca         1 JLY      -0.184000
     11 C09          0.6310     0.8860    -0.2080 cf         1 JLY       0.551500
     12 N10          0.9980     2.1300    -0.0490 n2         1 JLY      -0.587900
     13 C11          2.4420     2.4480     0.1210 c6         1 JLY       0.106800
     14 C12          3.2610     1.3440     0.8550 c6         1 JLY      -0.029100
     15 S14          3.9290    -1.4000     0.1030 ss         1 JLY       0.227000
     16 C16          1.5150    -1.4840    -0.8470 cd         1 JLY      -0.094000
     17 H151         2.8270    -3.2570    -1.1130 h4         1 JLY       0.152000
     18 H011        -5.1850    -2.2610     0.0540 h1         1 JLY       0.041367
     19 H012        -5.2970    -1.4120     1.6190 h1         1 JLY       0.041367
     20 H013        -6.6390    -1.3250     0.4590 h1         1 JLY       0.041367
     21 H041        -3.8440     1.9180    -1.0960 ha         1 JLY       0.122500
     22 H051        -1.4200     2.4110    -1.1940 ha         1 JLY       0.123500
     23 H071        -0.6060    -1.2920     0.9040 ha         1 JLY       0.123500
     24 H081        -3.0070    -1.7790     0.9840 ha         1 JLY       0.122500
     25 H111         2.8730     2.6010    -0.8790 h1         1 JLY       0.061700
     26 H112         2.5390     3.3990     0.6650 h1         1 JLY       0.061700
     27 H122         3.0380     1.3740     1.9300 hc         1 JLY       0.061700
     28 H121         4.3370     1.5420     0.7490 hc         1 JLY       0.061700
     29 H161         0.6150    -1.8260    -1.3520 ha         1 JLY       0.142000
     30 O02         -4.9650    -0.1780    -0.0430 os         1 JLY      -0.340100
@<TRIPOS>BOND
     1     1     3 2   
     2     1    14 1   
     3     1    15 1   
     4     2    15 1   
     5     2    16 2   
     6     2    17 1   
     7     3    11 1   
     8     3    16 1   
     9     4    18 1   
    10     4    19 1   
    11     4    20 1   
    12     4    30 1   
    13     5     6 ar  
    14     5    10 ar  
    15     5    30 1   
    16     6     7 ar  
    17     6    21 1   
    18     7     8 ar  
    19     7    22 1   
    20     8     9 ar  
    21     8    11 1   
    22     9    10 ar  
    23     9    23 1   
    24    10    24 1   
    25    11    12 2   
    26    12    13 1   
    27    13    14 1   
    28    13    25 1   
    29    13    26 1   
    30    14    27 1   
    31    14    28 1   
    32    16    29 1   
@<TRIPOS>SUBSTRUCTURE
     1 JLY         1 TEMP              0 ****  ****    0 ROOT
