@<TRIPOS>MOLECULE
JLZ
   20    20     1     0     0
SMALL
bcc


@<TRIPOS>ATOM
      1 F1           2.1330    -1.7440     0.1640 f          1 JLZ      -0.146900
      2 C2           1.3020    -0.6890     0.0900 ca         1 JLZ       0.121900
      3 C3           1.8570     0.5760    -0.0290 ca         1 JLZ      -0.098300
      4 C4           0.9590     1.6390    -0.0860 ca         1 JLZ      -0.116000
      5 C6          -0.4120     1.4400    -0.0280 ca         1 JLZ      -0.094000
      6 C8          -0.9350     0.1550     0.0780 ca         1 JLZ      -0.122900
      7 C9          -0.0570    -0.9250     0.1400 ca         1 JLZ      -0.152000
      8 C11         -2.4100    -0.0430     0.1320 ce         1 JLZ       0.658800
      9 N12         -3.1350     0.9040     0.5900 n2         1 JLZ      -0.824100
     10 N14         -2.8460    -1.2690    -0.2800 nv         1 JLZ      -0.963800
     11 C17          3.3410     0.7720    -0.0910 c3         1 JLZ      -0.043800
     12 H4           1.3450     2.6460    -0.1830 ha         1 JLZ       0.137000
     13 H6          -1.0830     2.2850    -0.0780 ha         1 JLZ       0.158000
     14 H9          -0.4110    -1.9430     0.2490 ha         1 JLZ       0.154000
     15 HN12        -4.1220     0.6660     0.5440 hn         1 JLZ       0.372400
     16 HN14        -2.3040    -1.7600    -0.9730 hn         1 JLZ       0.406800
     17 HN1A        -3.8400    -1.3930    -0.3870 hn         1 JLZ       0.406800
     18 H17          3.7880     0.2030    -0.9070 hc         1 JLZ       0.049033
     19 H17A         3.5840     1.8210    -0.2450 hc         1 JLZ       0.049033
     20 H17B         3.8260     0.4490     0.8310 hc         1 JLZ       0.049033
@<TRIPOS>BOND
     1     1     2 1   
     2     2     3 ar  
     3     2     7 ar  
     4     3     4 ar  
     5     3    11 1   
     6     4     5 ar  
     7     4    12 1   
     8     5     6 ar  
     9     5    13 1   
    10     6     7 ar  
    11     6     8 1   
    12     7    14 1   
    13     8     9 2   
    14     8    10 1   
    15     9    15 1   
    16    10    16 1   
    17    10    17 1   
    18    11    18 1   
    19    11    19 1   
    20    11    20 1   
@<TRIPOS>SUBSTRUCTURE
     1 JLZ         1 TEMP              0 ****  ****    0 ROOT
