@<TRIPOS>MOLECULE
JLZ
   20    20     1     0     0
SMALL
No Charge or Current Charge


@<TRIPOS>ATOM
      1 F1           2.1630    -1.8000     0.1300 f          1 JLZ      -0.182000
      2 C2           1.3380    -0.7300     0.0680 ca         1 JLZ       0.157000
      3 C3           1.8710     0.5690    -0.0380 ca         1 JLZ      -0.098300
      4 C4           0.9900     1.6640    -0.0840 ca         1 JLZ      -0.098000
      5 C6          -0.4010     1.4630    -0.0330 ca         1 JLZ      -0.076000
      6 C8          -0.9470     0.1610     0.0510 ca         1 JLZ      -0.122900
      7 C9          -0.0510    -0.9350     0.1180 ca         1 JLZ      -0.134000
      8 C11         -2.4350    -0.0330     0.1360 ce         1 JLZ       0.658800
      9 N12         -3.2450     0.9010     0.4210 n2         1 JLZ      -0.824100
     10 N14         -2.9430    -1.2400    -0.2000 nv         1 JLZ      -1.074200
     11 C17          3.3790     0.7900    -0.0920 c3         1 JLZ      -0.043800
     12 H4           1.3790     2.6780    -0.1570 ha         1 JLZ       0.119000
     13 H6          -1.0580     2.3300    -0.0670 ha         1 JLZ       0.140000
     14 H9          -0.4190    -1.9520     0.2230 ha         1 JLZ       0.136000
     15 HN12        -4.1580     0.4790     0.6190 hn         1 JLZ       0.372400
     16 HN14        -2.3050    -1.8440    -0.7040 hn         1 JLZ       0.462000
     17 HN1A        -3.8970    -1.2450    -0.5420 hn         1 JLZ       0.462000
     18 H17          3.8220     0.2620    -0.9450 hc         1 JLZ       0.049033
     19 H17A         3.6330     1.8520    -0.1920 hc         1 JLZ       0.049033
     20 H17B         3.8620     0.4190     0.8200 hc         1 JLZ       0.049033
@<TRIPOS>BOND
     1     1     2 1   
     2     2     3 ar  
     3     2     7 ar  
     4     3     4 ar  
     5     3    11 1   
     6     4     5 ar  
     7     4    12 1   
     8     5     6 ar  
     9     5    13 1   
    10     6     7 ar  
    11     6     8 1   
    12     7    14 1   
    13     8     9 2   
    14     8    10 1   
    15     9    15 1   
    16    10    16 1   
    17    10    17 1   
    18    11    18 1   
    19    11    19 1   
    20    11    20 1   
@<TRIPOS>SUBSTRUCTURE
     1 JLZ         1 TEMP              0 ****  ****    0 ROOT
