@<TRIPOS>MOLECULE
JM0
   43    45     1     0     0
SMALL
abcg2


@<TRIPOS>ATOM
      1 N3          27.9340   -45.7060   -14.3370 nb         1 JM0      -0.778000
      2 C4          30.6370   -46.0130   -13.8800 ca         1 JM0      -0.006000
      3 C5          30.2040   -45.1350   -14.8830 ca         1 JM0       0.202000
      4 C6          28.8220   -45.0380   -15.0530 ca         1 JM0       0.467500
      5 C7          30.6840   -43.6370   -16.5390 cc         1 JM0       0.670900
      6 C10         26.1070   -47.0270   -12.9220 c3         1 JM0       0.156900
      7 C20         25.0970   -42.1220   -14.9180 c3         1 JM0      -0.091100
      8 C24         33.8110   -41.8390   -18.2020 c3         1 JM0      -0.369100
      9 C1          29.7290   -46.7160   -13.1300 ca         1 JM0      -0.183000
     10 C2          28.3660   -46.5230   -13.4040 ca         1 JM0       0.612300
     11 N8          31.1230   -44.4470   -15.6420 nd         1 JM0      -0.721000
     12 O9          27.4940   -47.2110   -12.6720 os         1 JM0      -0.451300
     13 N11         31.5850   -42.9000   -17.2880 nu         1 JM0      -0.866000
     14 C12         29.2910   -43.4290   -16.7920 cc         1 JM0      -0.234000
     15 N13         28.3760   -44.1690   -16.0460 na         1 JM0      -0.111300
     16 C14         27.1340   -43.8270   -16.4800 cc         1 JM0       0.419800
     17 N15         27.2270   -42.9230   -17.4330 nd         1 JM0      -0.583300
     18 C16         28.5360   -42.6530   -17.6430 cd         1 JM0       0.089400
     19 C18         25.8350   -44.3360   -15.9610 c3         1 JM0      -0.079700
     20 C19         25.3460   -43.6070   -14.7040 c3         1 JM0      -0.068400
     21 S21         33.2480   -43.0630   -17.0490 s6         1 JM0       1.215100
     22 O22         33.5500   -42.6290   -15.6980 o          1 JM0      -0.510000
     23 O23         33.7110   -44.3700   -17.4810 o          1 JM0      -0.510000
     24 H1          31.6990   -46.1260   -13.7090 ha         1 JM0       0.150000
     25 H2          25.5900   -47.6920   -12.2360 h1         1 JM0       0.049367
     26 H3          25.7950   -45.9990   -12.7320 h1         1 JM0       0.049367
     27 H4          25.8420   -47.2890   -13.9480 h1         1 JM0       0.049367
     28 H5          28.1140   -41.0850   -19.0060 hc         1 JM0       0.049700
     29 H6          29.7000   -40.9500   -18.2530 hc         1 JM0       0.049700
     30 H7          29.4230   -42.1300   -19.5340 hc         1 JM0       0.049700
     31 H8          24.6870   -41.6640   -14.0180 hc         1 JM0       0.036367
     32 H9          26.0130   -41.5870   -15.1690 hc         1 JM0       0.036367
     33 H10         24.3850   -41.9530   -15.7290 hc         1 JM0       0.036367
     34 H11         34.8980   -41.8320   -18.1340 h1         1 JM0       0.105700
     35 H12         33.5090   -42.1110   -19.2120 h1         1 JM0       0.105700
     36 H13         33.4140   -40.8660   -17.9260 h1         1 JM0       0.105700
     37 H14         30.0430   -47.3970   -12.3510 ha         1 JM0       0.148000
     38 H15         31.3250   -42.6740   -18.2410 hn         1 JM0       0.503000
     39 H16         25.1070   -44.1910   -16.7610 hc         1 JM0       0.068200
     40 H17         25.8950   -45.4040   -15.7630 hc         1 JM0       0.068200
     41 H18         24.4200   -44.0920   -14.3850 hc         1 JM0       0.042700
     42 H19         26.0630   -43.7550   -13.8940 hc         1 JM0       0.042700
     43 C17         28.9730   -41.6540   -18.6590 c3         1 JM0      -0.022900
@<TRIPOS>BOND
     1     1     4 ar  
     2     1    10 ar  
     3     2     3 ar  
     4     2     9 ar  
     5     2    24 1   
     6     3     4 ar  
     7     3    11 1   
     8     4    15 1   
     9     5    11 2   
    10     5    13 1   
    11     5    14 1   
    12     6    12 1   
    13     6    25 1   
    14     6    26 1   
    15     6    27 1   
    16     7    20 1   
    17     7    31 1   
    18     7    32 1   
    19     7    33 1   
    20     8    21 1   
    21     8    34 1   
    22     8    35 1   
    23     8    36 1   
    24     9    10 ar  
    25     9    37 1   
    26    10    12 1   
    27    13    21 1   
    28    13    38 1   
    29    14    15 1   
    30    14    18 2   
    31    15    16 1   
    32    16    17 2   
    33    16    19 1   
    34    17    18 1   
    35    18    43 1   
    36    19    20 1   
    37    19    39 1   
    38    19    40 1   
    39    20    41 1   
    40    20    42 1   
    41    21    22 2   
    42    21    23 2   
    43    28    43 1   
    44    29    43 1   
    45    30    43 1   
@<TRIPOS>SUBSTRUCTURE
     1 JM0         1 TEMP              0 ****  ****    0 ROOT
