@<TRIPOS>MOLECULE
JM0
   43    45     1     0     0
SMALL
No Charge or Current Charge


@<TRIPOS>ATOM
      1 N3          27.9490   -45.7050   -14.2430 nb         1 JM0      -0.778000
      2 C4          30.6340   -45.7500   -13.4340 ca         1 JM0      -0.006000
      3 C5          30.2510   -44.9040   -14.4890 ca         1 JM0       0.202000
      4 C6          28.8550   -44.9100   -14.8680 ca         1 JM0       0.467500
      5 C7          30.8600   -43.3650   -16.0790 cc         1 JM0       0.670900
      6 C10         26.0390   -47.2880   -12.9780 c3         1 JM0       0.156900
      7 C20         24.9540   -42.2360   -15.0880 c3         1 JM0      -0.091100
      8 C24         33.5290   -41.9180   -18.6120 c3         1 JM0      -0.369100
      9 C1          29.6730   -46.5550   -12.8050 ca         1 JM0      -0.183000
     10 C2          28.3470   -46.5040   -13.2370 ca         1 JM0       0.612300
     11 N8          31.2910   -44.1210   -15.0810 nd         1 JM0      -0.721000
     12 O9          27.4300   -47.3040   -12.6000 os         1 JM0      -0.451300
     13 N11         31.7700   -42.5700   -16.6620 nu         1 JM0      -0.866000
     14 C12         29.4940   -43.2930   -16.5110 cc         1 JM0      -0.234000
     15 N13         28.5350   -44.0460   -15.9130 na         1 JM0      -0.111300
     16 C14         27.3110   -43.7920   -16.4980 cc         1 JM0       0.419800
     17 N15         27.4940   -42.9020   -17.4730 nd         1 JM0      -0.583300
     18 C16         28.8430   -42.5810   -17.4950 cd         1 JM0       0.089400
     19 C18         25.9580   -44.3740   -16.1520 c3         1 JM0      -0.079700
     20 C19         25.2820   -43.7330   -14.9140 c3         1 JM0      -0.068400
     21 S21         32.9510   -43.2530   -17.5860 s6         1 JM0       1.215100
     22 O22         34.0290   -43.6470   -16.6770 o          1 JM0      -0.510000
     23 O23         32.2820   -44.2390   -18.4340 o          1 JM0      -0.510000
     24 H1          31.6720   -45.7810   -13.1110 ha         1 JM0       0.150000
     25 H2          25.4670   -47.9890   -12.3580 h1         1 JM0       0.049367
     26 H3          25.6080   -46.2870   -12.8440 h1         1 JM0       0.049367
     27 H4          25.9140   -47.5830   -14.0280 h1         1 JM0       0.049367
     28 H5          28.5730   -41.2370   -19.1670 hc         1 JM0       0.049700
     29 H6          29.7970   -40.7070   -18.0130 hc         1 JM0       0.049700
     30 H7          30.1400   -42.0440   -19.1420 hc         1 JM0       0.049700
     31 H8          24.4360   -41.8540   -14.2000 hc         1 JM0       0.036367
     32 H9          25.8680   -41.6470   -15.2280 hc         1 JM0       0.036367
     33 H10         24.3040   -42.0790   -15.9570 hc         1 JM0       0.036367
     34 H11         34.3480   -42.3120   -19.2220 h1         1 JM0       0.105700
     35 H12         32.6990   -41.5830   -19.2430 h1         1 JM0       0.105700
     36 H13         33.8820   -41.1190   -17.9510 h1         1 JM0       0.105700
     37 H14         29.9490   -47.2160   -11.9890 ha         1 JM0       0.148000
     38 H15         31.3390   -41.9130   -17.2800 hn         1 JM0       0.503000
     39 H16         25.2890   -44.2550   -17.0120 hc         1 JM0       0.068200
     40 H17         26.0430   -45.4560   -16.0050 hc         1 JM0       0.068200
     41 H18         24.3530   -44.2740   -14.7000 hc         1 JM0       0.042700
     42 H19         25.9250   -43.8550   -14.0340 hc         1 JM0       0.042700
     43 C17         29.3730   -41.5910   -18.5040 c3         1 JM0      -0.022900
@<TRIPOS>BOND
     1     1     4 ar  
     2     1    10 ar  
     3     2     3 ar  
     4     2     9 ar  
     5     2    24 1   
     6     3     4 ar  
     7     3    11 1   
     8     4    15 1   
     9     5    11 2   
    10     5    13 1   
    11     5    14 1   
    12     6    12 1   
    13     6    25 1   
    14     6    26 1   
    15     6    27 1   
    16     7    20 1   
    17     7    31 1   
    18     7    32 1   
    19     7    33 1   
    20     8    21 1   
    21     8    34 1   
    22     8    35 1   
    23     8    36 1   
    24     9    10 ar  
    25     9    37 1   
    26    10    12 1   
    27    13    21 1   
    28    13    38 1   
    29    14    15 1   
    30    14    18 2   
    31    15    16 1   
    32    16    17 2   
    33    16    19 1   
    34    17    18 1   
    35    18    43 1   
    36    19    20 1   
    37    19    39 1   
    38    19    40 1   
    39    20    41 1   
    40    20    42 1   
    41    21    22 2   
    42    21    23 2   
    43    28    43 1   
    44    29    43 1   
    45    30    43 1   
@<TRIPOS>SUBSTRUCTURE
     1 JM0         1 TEMP              0 ****  ****    0 ROOT
