@<TRIPOS>MOLECULE
JM2
   30    29     1     0     0
SMALL
No Charge or Current Charge


@<TRIPOS>ATOM
      1 C            5.1000    -0.2340     0.2900 c          1 JM2       0.692000
      2 N            3.8230     1.9840    -0.2970 n8         1 JM2      -1.003200
      3 C1          -2.5210    -0.3920    -0.2040 c2         1 JM2       0.639200
      4 C2          -3.7170     0.4300     0.2630 c3         1 JM2      -0.045700
      5 S3          -5.3580    -0.3580    -0.1530 ss         1 JM2      -0.408000
      6 C4          -6.5070     0.9050     0.5570 c3         1 JM2       0.031900
      7 CA           3.7720     0.6300     0.3690 c3         1 JM2       0.014500
      8 CB           2.5630    -0.1990    -0.1460 c3         1 JM2      -0.048400
      9 CD           0.0080    -0.4790    -0.2860 c3         1 JM2       0.222800
     10 NE          -1.2820     0.1320     0.0720 nu         1 JM2      -0.906400
     11 CG           1.1770     0.4030     0.1960 c3         1 JM2      -0.091400
     12 NH          -2.6000    -1.5050    -0.8160 n2         1 JM2      -0.848100
     13 OA1          5.6320    -0.3870    -0.8030 o          1 JM2      -0.734500
     14 OA2          5.6040    -0.6190     1.3360 o          1 JM2      -0.734500
     15 HN           4.5970     2.5250     0.1070 hn         1 JM2       0.382000
     16 HNA          4.1180     1.8510    -1.2720 hn         1 JM2       0.382000
     17 H2          -3.6590     0.5640     1.3500 h1         1 JM2       0.067200
     18 H2A         -3.6760     1.4210    -0.2050 h1         1 JM2       0.067200
     19 H4          -6.3440     1.8740     0.0690 h1         1 JM2       0.057033
     20 H4A         -7.5470     0.5920     0.3970 h1         1 JM2       0.057033
     21 H4B         -6.3260     1.0090     1.6350 h1         1 JM2       0.057033
     22 HA           3.5980     0.8170     1.4380 h1         1 JM2       0.033700
     23 HB           2.6470    -0.3330    -1.2320 hc         1 JM2       0.042200
     24 HBA          2.6200    -1.2020     0.2950 hc         1 JM2       0.042200
     25 HD           0.0940    -1.4740     0.1740 h1         1 JM2       0.047200
     26 HG           1.1040     0.5370     1.2820 hc         1 JM2       0.039200
     27 HGA          1.0860     1.3960    -0.2610 hc         1 JM2       0.039200
     28 HNH         -3.6050    -1.7090    -0.9160 hn         1 JM2       0.381400
     29 H16          0.0760    -0.6040    -1.3760 h1         1 JM2       0.047200
     30 H17         -1.2700     1.0270     0.5540 hn         1 JM2       0.477000
@<TRIPOS>BOND
     1     1     7 1   
     2     1    13 1   
     3     1    14 1   
     4     2     7 1   
     5     2    15 1   
     6     2    16 1   
     7     3     4 1   
     8     3    10 1   
     9     3    12 2   
    10     4     5 1   
    11     4    17 1   
    12     4    18 1   
    13     5     6 1   
    14     6    19 1   
    15     6    20 1   
    16     6    21 1   
    17     7     8 1   
    18     7    22 1   
    19     8    11 1   
    20     8    23 1   
    21     8    24 1   
    22     9    10 1   
    23     9    11 1   
    24     9    25 1   
    25     9    29 1   
    26    10    30 1   
    27    11    26 1   
    28    11    27 1   
    29    12    28 1   
@<TRIPOS>SUBSTRUCTURE
     1 JM2         1 TEMP              0 ****  ****    0 ROOT
