@<TRIPOS>MOLECULE
JM2
   30    29     1     0     0
SMALL
abcg2


@<TRIPOS>ATOM
      1 C            4.9930    -0.1740     0.2740 c          1 JM2       0.692000
      2 N            3.7290     1.8000    -0.7050 n8         1 JM2      -1.003200
      3 C1          -2.4550    -0.3370    -0.1110 c2         1 JM2       0.639200
      4 C2          -3.6410     0.4200     0.4550 c3         1 JM2      -0.045700
      5 S3          -5.0100     0.4370    -0.7340 ss         1 JM2      -0.408000
      6 C4          -6.3610     0.8880     0.3750 c3         1 JM2       0.031900
      7 CA           3.7130     0.6980     0.2460 c3         1 JM2       0.014500
      8 CB           2.5000    -0.2000    -0.0100 c3         1 JM2      -0.048400
      9 CD          -0.0070    -0.4150    -0.1200 c3         1 JM2       0.222800
     10 NE          -1.2640     0.2550     0.1280 nu         1 JM2      -0.906400
     11 CG           1.1650     0.5140     0.1480 c3         1 JM2      -0.091400
     12 NH          -2.5270    -1.4510    -0.7350 n2         1 JM2      -0.848100
     13 OA1          5.7950    -0.0580    -0.6740 o          1 JM2      -0.734500
     14 OA2          5.1040    -0.9490     1.2480 o          1 JM2      -0.734500
     15 HN           4.4490     2.4570    -0.4290 hn         1 JM2       0.382000
     16 HNA          4.0500     1.4360    -1.5950 hn         1 JM2       0.382000
     17 H2          -3.9740    -0.0890     1.3630 h1         1 JM2       0.067200
     18 H2A         -3.3700     1.4410     0.7270 h1         1 JM2       0.067200
     19 H4          -6.1990     1.8690     0.8200 h1         1 JM2       0.057033
     20 H4A         -7.2720     0.9210    -0.2180 h1         1 JM2       0.057033
     21 H4B         -6.4820     0.1470     1.1640 h1         1 JM2       0.057033
     22 HA           3.5930     1.1310     1.2460 h1         1 JM2       0.033700
     23 HB           2.5730    -0.6220    -1.0210 hc         1 JM2       0.042200
     24 HBA          2.5410    -1.0470     0.6790 hc         1 JM2       0.042200
     25 HD           0.0740    -1.3150     0.5020 h1         1 JM2       0.047200
     26 HG           1.0930     0.9120     1.1670 hc         1 JM2       0.039200
     27 HGA          1.1220     1.3700    -0.5280 hc         1 JM2       0.039200
     28 HNH         -3.4960    -1.7310    -0.8360 hn         1 JM2       0.381400
     29 H16          0.0170    -0.7560    -1.1580 h1         1 JM2       0.047200
     30 H17         -1.2460     1.0480     0.7470 hn         1 JM2       0.477000
@<TRIPOS>BOND
     1     1     7 1   
     2     1    13 1   
     3     1    14 1   
     4     2     7 1   
     5     2    15 1   
     6     2    16 1   
     7     3     4 1   
     8     3    10 1   
     9     3    12 2   
    10     4     5 1   
    11     4    17 1   
    12     4    18 1   
    13     5     6 1   
    14     6    19 1   
    15     6    20 1   
    16     6    21 1   
    17     7     8 1   
    18     7    22 1   
    19     8    11 1   
    20     8    23 1   
    21     8    24 1   
    22     9    10 1   
    23     9    11 1   
    24     9    25 1   
    25     9    29 1   
    26    10    30 1   
    27    11    26 1   
    28    11    27 1   
    29    12    28 1   
@<TRIPOS>SUBSTRUCTURE
     1 JM2         1 TEMP              0 ****  ****    0 ROOT
