@<TRIPOS>MOLECULE
JM3
   34    36     1     0     0
SMALL
No Charge or Current Charge


@<TRIPOS>ATOM
      1 N1         -22.8910     2.1790    10.7170 nb         1 JM3      -0.634000
      2 C4         -22.0230     6.0240    13.8330 c3         1 JM3       0.221100
      3 C5         -20.0380     6.5040    15.2370 c6         1 JM3       0.126800
      4 C6         -18.9680     5.8940    16.1920 c6         1 JM3       0.153600
      5 C7         -20.4970     4.1550    16.8590 c6         1 JM3       0.153600
      6 C8         -21.5990     4.7250    15.9180 c6         1 JM3       0.126800
      7 C10        -21.1060     4.0720    11.7850 ca         1 JM3      -0.060000
      8 C13        -23.3260     3.0650    11.6600 ca         1 JM3       0.241000
      9 O          -25.5760     2.1200    11.6090 oh         1 JM3      -0.495100
     10 C          -24.6800     3.0330    12.1080 ca         1 JM3       0.178100
     11 C12        -21.6040     2.2260    10.3110 ca         1 JM3       0.337900
     12 C11        -20.6840     3.1510    10.8170 ca         1 JM3      -0.161000
     13 C9         -22.4500     4.0410    12.2240 ca         1 JM3      -0.030000
     14 C3         -22.9230     4.9560    13.2030 ca         1 JM3      -0.107300
     15 C2         -24.2650     4.8930    13.6180 ca         1 JM3      -0.060000
     16 C1         -25.1360     3.9400    13.0760 ca         1 JM3      -0.229000
     17 N          -21.0080     5.4710    14.7610 n3         1 JM3      -0.722600
     18 O1         -19.6100     5.2130    17.2970 os         1 JM3      -0.449000
     19 H3         -21.5280     6.5790    13.0240 h1         1 JM3       0.038200
     20 H4         -22.6480     6.7540    14.3650 h1         1 JM3       0.038200
     21 H6         -20.5670     7.3080    15.7700 h1         1 JM3       0.042200
     22 H8         -18.3380     5.1800    15.6420 h1         1 JM3       0.050950
     23 H7         -18.3210     6.6900    16.5860 h1         1 JM3       0.050950
     24 H9         -20.9610     3.6870    17.7390 h1         1 JM3       0.050950
     25 H10        -19.9130     3.3880    16.3310 h1         1 JM3       0.050950
     26 H11        -22.2550     5.3870    16.5030 h1         1 JM3       0.042200
     27 H12        -22.2180     3.8890    15.5640 h1         1 JM3       0.042200
     28 H13        -20.3890     4.7860    12.1820 ha         1 JM3       0.133000
     29 H          -26.4400     2.2690    12.0440 ho         1 JM3       0.459000
     30 H15        -21.3050     1.4980     9.5570 h4         1 JM3       0.020100
     31 H14        -19.6580     3.1490    10.4610 ha         1 JM3       0.122000
     32 H2         -24.6370     5.5870    14.3700 ha         1 JM3       0.111000
     33 H1         -26.1690     3.9110    13.4150 ha         1 JM3       0.116000
     34 H5         -19.5240     6.9680    14.3820 h1         1 JM3       0.042200
@<TRIPOS>BOND
     1     1     8 ar  
     2     1    11 ar  
     3     2    14 1   
     4     2    17 1   
     5     2    19 1   
     6     2    20 1   
     7     3     4 1   
     8     3    17 1   
     9     3    21 1   
    10     3    34 1   
    11     4    18 1   
    12     4    22 1   
    13     4    23 1   
    14     5     6 1   
    15     5    18 1   
    16     5    24 1   
    17     5    25 1   
    18     6    17 1   
    19     6    26 1   
    20     6    27 1   
    21     7    12 ar  
    22     7    13 ar  
    23     7    28 1   
    24     8    10 ar  
    25     8    13 ar  
    26     9    10 1   
    27     9    29 1   
    28    10    16 ar  
    29    11    12 ar  
    30    11    30 1   
    31    12    31 1   
    32    13    14 ar  
    33    14    15 ar  
    34    15    16 ar  
    35    15    32 1   
    36    16    33 1   
@<TRIPOS>SUBSTRUCTURE
     1 JM3         1 TEMP              0 ****  ****    0 ROOT
