@<TRIPOS>MOLECULE
JM3
   34    36     1     0     0
SMALL
bcc


@<TRIPOS>ATOM
      1 N1         -22.8350     2.2060    10.8530 nb         1 JM3      -0.634000
      2 C4         -22.0980     6.0530    13.9350 c3         1 JM3       0.221100
      3 C5         -20.0900     6.4590    15.1910 c6         1 JM3       0.126800
      4 C6         -18.9870     5.7860    15.9860 c6         1 JM3       0.130400
      5 C7         -20.4590     4.1410    16.7070 c6         1 JM3       0.130400
      6 C8         -21.5940     4.7730    15.9240 c6         1 JM3       0.126800
      7 C10        -21.0900     4.0860    11.9400 ca         1 JM3      -0.078000
      8 C13        -23.2830     3.1090    11.7520 ca         1 JM3       0.371600
      9 O          -25.4090     2.1180    11.5180 oh         1 JM3      -0.456100
     10 C          -24.6650     3.0670    12.1070 ca         1 JM3       0.112800
     11 C12        -21.5760     2.2390    10.5090 ca         1 JM3       0.403200
     12 C11        -20.6560     3.1710    11.0230 ca         1 JM3      -0.244300
     13 C9         -22.4450     4.0870    12.3460 ca         1 JM3      -0.095300
     14 C3         -22.9730     5.0160    13.2870 ca         1 JM3      -0.107300
     15 C2         -24.3060     4.9360    13.5890 ca         1 JM3      -0.078000
     16 C1         -25.1550     3.9760    13.0080 ca         1 JM3      -0.247000
     17 N          -21.0630     5.4700    14.7680 n3         1 JM3      -0.722600
     18 O1         -19.5010     5.0970    17.1040 os         1 JM3      -0.402600
     19 H3         -21.6010     6.6550    13.1660 h1         1 JM3       0.038200
     20 H4         -22.7370     6.7500    14.5020 h1         1 JM3       0.038200
     21 H6         -20.5510     7.2550    15.8000 h1         1 JM3       0.042200
     22 H8         -18.4390     5.0960    15.3270 h1         1 JM3       0.050950
     23 H7         -18.2810     6.5310    16.3560 h1         1 JM3       0.050950
     24 H9         -20.8450     3.6710    17.6130 h1         1 JM3       0.050950
     25 H10        -19.9910     3.3590    16.0940 h1         1 JM3       0.050950
     26 H11        -22.1680     5.4520    16.5780 h1         1 JM3       0.042200
     27 H12        -22.2760     3.9820    15.6020 h1         1 JM3       0.042200
     28 H13        -20.4000     4.8030    12.3620 ha         1 JM3       0.151000
     29 H          -26.3190     2.1720    11.8320 ho         1 JM3       0.420000
     30 H15        -21.2470     1.5010     9.7850 h4         1 JM3       0.020100
     31 H14        -19.6260     3.1510    10.6940 ha         1 JM3       0.140000
     32 H2         -24.7320     5.6300    14.3040 ha         1 JM3       0.129000
     33 H1         -26.2030     3.9570    13.2860 ha         1 JM3       0.134000
     34 H5         -19.6530     6.9370    14.3100 h1         1 JM3       0.042200
@<TRIPOS>BOND
     1     1     8 ar  
     2     1    11 ar  
     3     2    14 1   
     4     2    17 1   
     5     2    19 1   
     6     2    20 1   
     7     3     4 1   
     8     3    17 1   
     9     3    21 1   
    10     3    34 1   
    11     4    18 1   
    12     4    22 1   
    13     4    23 1   
    14     5     6 1   
    15     5    18 1   
    16     5    24 1   
    17     5    25 1   
    18     6    17 1   
    19     6    26 1   
    20     6    27 1   
    21     7    12 ar  
    22     7    13 ar  
    23     7    28 1   
    24     8    10 ar  
    25     8    13 ar  
    26     9    10 1   
    27     9    29 1   
    28    10    16 ar  
    29    11    12 ar  
    30    11    30 1   
    31    12    31 1   
    32    13    14 ar  
    33    14    15 ar  
    34    15    16 ar  
    35    15    32 1   
    36    16    33 1   
@<TRIPOS>SUBSTRUCTURE
     1 JM3         1 TEMP              0 ****  ****    0 ROOT
