@<TRIPOS>MOLECULE
JM4
   39    38     1     0     0
SMALL
No Charge or Current Charge


@<TRIPOS>ATOM
      1 C           -6.0290     0.9270     0.5410 c          1 JM4       0.723000
      2 N           -3.9200     2.2570     1.3820 n8         1 JM4      -0.990200
      3 C1           0.9750    -1.7010    -1.0440 c2         1 JM4       0.638200
      4 C2           2.2940    -1.1710    -1.5420 c3         1 JM4      -0.170700
      5 C3           3.2000    -0.6890    -0.3950 c3         1 JM4       0.072600
      6 S4           4.8020    -0.0590    -1.0710 ss         1 JM4      -0.463000
      7 C5           5.6310     0.4860     0.4900 c3         1 JM4       0.090300
      8 C6           6.2800    -0.7250     1.1910 c3         1 JM4      -0.083600
      9 C7           6.6510     1.5930     0.1630 c3         1 JM4      -0.083600
     10 CA          -4.4950     1.3000     0.3690 c3         1 JM4       0.019500
     11 CB          -3.6210     0.0180     0.2900 c3         1 JM4      -0.097400
     12 CD          -1.3640    -1.0540    -0.3380 c3         1 JM4       0.230800
     13 NE          -0.0030    -0.7710    -0.8180 nu         1 JM4      -0.922400
     14 CG          -2.1710     0.2550    -0.2060 c3         1 JM4      -0.097400
     15 NH           0.7330    -2.9270    -0.8150 n2         1 JM4      -0.867100
     16 OA1         -6.8060     1.2330    -0.3550 o          1 JM4      -0.731000
     17 OA2         -6.3920     0.4050     1.5890 o          1 JM4      -0.731000
     18 HN          -4.0450     1.8570     2.3190 hn         1 JM4       0.375500
     19 HNA         -2.9020     2.2950     1.2630 hn         1 JM4       0.375500
     20 H2           2.8200    -1.9500    -2.1070 hc         1 JM4       0.066200
     21 H2A          2.1300    -0.3450    -2.2440 hc         1 JM4       0.066200
     22 H3           2.7010     0.1150     0.1630 h1         1 JM4       0.061700
     23 H3A          3.3970    -1.5200     0.2960 h1         1 JM4       0.061700
     24 H5           4.8690     0.9120     1.1570 h1         1 JM4       0.061700
     25 H6           6.7680    -0.4140     2.1220 hc         1 JM4       0.041700
     26 H6A          5.5260    -1.4800     1.4410 hc         1 JM4       0.041700
     27 H6B          7.0340    -1.1910     0.5450 hc         1 JM4       0.041700
     28 H7           6.1540     2.4440    -0.3180 hc         1 JM4       0.041700
     29 H7A          7.1350     1.9550     1.0780 hc         1 JM4       0.041700
     30 H7B          7.4290     1.2200    -0.5140 hc         1 JM4       0.041700
     31 HA          -4.4170     1.7950    -0.6080 h1         1 JM4       0.043700
     32 HB          -3.5980    -0.4720     1.2710 hc         1 JM4       0.047700
     33 HBA         -4.1080    -0.6860    -0.3960 hc         1 JM4       0.047700
     34 HD          -1.8790    -1.7270    -1.0390 h1         1 JM4       0.048700
     35 HDA         -1.3230    -1.5520     0.6410 h1         1 JM4       0.048700
     36 HNE          0.2290     0.1890    -1.0580 hn         1 JM4       0.484000
     37 HG          -2.2050     0.7570    -1.1810 hc         1 JM4       0.029200
     38 HGA         -1.6480     0.9250     0.4870 hc         1 JM4       0.029200
     39 HNH          1.5800    -3.4670    -1.0350 hn         1 JM4       0.366400
@<TRIPOS>BOND
     1     1    10 1   
     2     1    16 1   
     3     1    17 1   
     4     2    10 1   
     5     2    18 1   
     6     2    19 1   
     7     3     4 1   
     8     3    13 1   
     9     3    15 2   
    10     4     5 1   
    11     4    20 1   
    12     4    21 1   
    13     5     6 1   
    14     5    22 1   
    15     5    23 1   
    16     6     7 1   
    17     7     8 1   
    18     7     9 1   
    19     7    24 1   
    20     8    25 1   
    21     8    26 1   
    22     8    27 1   
    23     9    28 1   
    24     9    29 1   
    25     9    30 1   
    26    10    11 1   
    27    10    31 1   
    28    11    14 1   
    29    11    32 1   
    30    11    33 1   
    31    12    13 1   
    32    12    14 1   
    33    12    34 1   
    34    12    35 1   
    35    13    36 1   
    36    14    37 1   
    37    14    38 1   
    38    15    39 1   
@<TRIPOS>SUBSTRUCTURE
     1 JM4         1 TEMP              0 ****  ****    0 ROOT
