@<TRIPOS>MOLECULE
JM4
   39    38     1     0     0
SMALL
abcg2


@<TRIPOS>ATOM
      1 C           -6.4150     0.0430    -0.1230 c          1 JM4       0.723000
      2 N           -5.1120     2.0960     0.2690 n8         1 JM4      -0.990200
      3 C1           1.0130    -0.6290     0.1530 c2         1 JM4       0.638200
      4 C2           2.2260     0.0940    -0.4010 c3         1 JM4      -0.170700
      5 C3           3.5520    -0.4040     0.1470 c3         1 JM4       0.072600
      6 S4           4.8910     0.5930    -0.5620 ss         1 JM4      -0.463000
      7 C5           6.3400    -0.0760     0.3260 c3         1 JM4       0.090300
      8 C6           6.6760    -1.4930    -0.1100 c3         1 JM4      -0.083600
      9 C7           7.5020     0.8770     0.0830 c3         1 JM4      -0.083600
     10 CA          -5.0810     0.7840    -0.3580 c3         1 JM4       0.019500
     11 CB          -3.9350    -0.1260     0.1170 c3         1 JM4      -0.097400
     12 CD          -1.4420    -0.5200     0.2550 c3         1 JM4       0.230800
     13 NE          -0.1500     0.0080    -0.1090 nu         1 JM4      -0.922400
     14 CG          -2.5510     0.3930    -0.2470 c3         1 JM4      -0.097400
     15 NH           1.0100    -1.7370     0.7940 n2         1 JM4      -0.867100
     16 OA1         -6.7120    -0.8380    -0.9550 o          1 JM4      -0.731000
     17 OA2         -7.0640     0.3470     0.8980 o          1 JM4      -0.731000
     18 HN          -5.4370     1.9810     1.2210 hn         1 JM4       0.375500
     19 HNA         -4.1810     2.4900     0.3240 hn         1 JM4       0.375500
     20 H2           2.2140    -0.0060    -1.4900 hc         1 JM4       0.066200
     21 H2A          2.1200     1.1620    -0.1910 hc         1 JM4       0.066200
     22 H3           3.5820    -0.3120     1.2350 h1         1 JM4       0.061700
     23 H3A          3.7070    -1.4530    -0.1100 h1         1 JM4       0.061700
     24 H5           6.0900    -0.0700     1.3900 h1         1 JM4       0.061700
     25 H6           7.5290    -1.8670     0.4600 hc         1 JM4       0.041700
     26 H6A          5.8480    -2.1820     0.0560 hc         1 JM4       0.041700
     27 H6B          6.9360    -1.5230    -1.1690 hc         1 JM4       0.041700
     28 H7           7.2800     1.8830     0.4390 hc         1 JM4       0.041700
     29 H7A          8.3900     0.5210     0.6070 hc         1 JM4       0.041700
     30 H7B          7.7470     0.9360    -0.9790 hc         1 JM4       0.041700
     31 HA          -4.9620     0.9220    -1.4390 h1         1 JM4       0.043700
     32 HB          -4.0110    -0.2510     1.2030 hc         1 JM4       0.047700
     33 HBA         -4.0670    -1.1190    -0.3230 hc         1 JM4       0.047700
     34 HD          -1.5700    -1.5260    -0.1590 h1         1 JM4       0.048700
     35 HDA         -1.5150    -0.6250     1.3430 h1         1 JM4       0.048700
     36 HNE         -0.1200     0.8690    -0.6290 hn         1 JM4       0.484000
     37 HG          -2.4740     0.4940    -1.3340 hc         1 JM4       0.029200
     38 HGA         -2.3930     1.3930     0.1720 hc         1 JM4       0.029200
     39 HNH          1.9510    -2.0940     0.9090 hn         1 JM4       0.366400
@<TRIPOS>BOND
     1     1    10 1   
     2     1    16 1   
     3     1    17 1   
     4     2    10 1   
     5     2    18 1   
     6     2    19 1   
     7     3     4 1   
     8     3    13 1   
     9     3    15 2   
    10     4     5 1   
    11     4    20 1   
    12     4    21 1   
    13     5     6 1   
    14     5    22 1   
    15     5    23 1   
    16     6     7 1   
    17     7     8 1   
    18     7     9 1   
    19     7    24 1   
    20     8    25 1   
    21     8    26 1   
    22     8    27 1   
    23     9    28 1   
    24     9    29 1   
    25     9    30 1   
    26    10    11 1   
    27    10    31 1   
    28    11    14 1   
    29    11    32 1   
    30    11    33 1   
    31    12    13 1   
    32    12    14 1   
    33    12    34 1   
    34    12    35 1   
    35    13    36 1   
    36    14    37 1   
    37    14    38 1   
    38    15    39 1   
@<TRIPOS>SUBSTRUCTURE
     1 JM4         1 TEMP              0 ****  ****    0 ROOT
