@<TRIPOS>MOLECULE
JM5
   36    35     1     0     0
SMALL
No Charge or Current Charge


@<TRIPOS>ATOM
      1 C           -5.3510     0.4400     1.2810 c          1 JM5       0.701000
      2 N           -3.9300    -1.7650     1.4420 n8         1 JM5      -1.013200
      3 C1           1.5170     0.2250    -2.0730 c2         1 JM5       0.633200
      4 C2           2.9400    -0.1850    -1.7130 c3         1 JM5       0.000300
      5 S3           3.3580     0.1580     0.0720 ss         1 JM5      -0.345000
      6 C4           5.0970    -0.4600     0.1140 c3         1 JM5       0.029600
      7 C5           5.6960    -0.2900     1.5220 c3         1 JM5      -0.063400
      8 C6           7.1500    -0.7890     1.6200 c3         1 JM5      -0.089100
      9 CA          -3.9290    -0.2660     1.2630 c3         1 JM5       0.011500
     10 CB          -3.1480     0.1430    -0.0160 c3         1 JM5      -0.044400
     11 CD          -0.8920     0.2760    -1.2480 c3         1 JM5       0.205800
     12 NE           0.5360    -0.0660    -1.1590 nu         1 JM5      -0.945400
     13 CG          -1.6370    -0.1980     0.0150 c3         1 JM5      -0.088400
     14 NH           1.1680     0.7470    -3.1760 n2         1 JM5      -0.846100
     15 OA1         -6.2350    -0.0140     0.5650 o          1 JM5      -0.728000
     16 OA2         -5.5420     1.3370     2.0910 o          1 JM5      -0.728000
     17 HN          -4.4000    -1.9950     2.3260 hn         1 JM5       0.387000
     18 HNA         -4.5550    -2.1730     0.7360 hn         1 JM5       0.387000
     19 H2           3.0650    -1.2570    -1.9070 h1         1 JM5       0.062700
     20 H2A          3.6490     0.3590    -2.3490 h1         1 JM5       0.062700
     21 H4           5.1060    -1.5210    -0.1690 h1         1 JM5       0.049700
     22 H4A          5.6940     0.1020    -0.6160 h1         1 JM5       0.049700
     23 H5           5.6610     0.7700     1.8040 hc         1 JM5       0.050200
     24 H5A          5.0790    -0.8360     2.2460 hc         1 JM5       0.050200
     25 H6           7.2100    -1.8560     1.3740 hc         1 JM5       0.030033
     26 H6A          7.7970    -0.2370     0.9280 hc         1 JM5       0.030033
     27 H6B          7.5350    -0.6490     2.6370 hc         1 JM5       0.030033
     28 HA          -3.3750     0.1430     2.1190 h1         1 JM5       0.018700
     29 HB          -3.6120    -0.3240    -0.8940 hc         1 JM5       0.044200
     30 HBA         -3.2510     1.2270    -0.1520 hc         1 JM5       0.044200
     31 HD          -1.0120     1.3640    -1.3490 h1         1 JM5       0.036200
     32 HG          -1.1830     0.2680     0.8980 hc         1 JM5       0.040700
     33 HGA         -1.5080    -1.2830     0.1180 hc         1 JM5       0.040700
     34 HNH          0.1520     0.8670    -3.1220 hn         1 JM5       0.384400
     35 H20         -1.3390    -0.2010    -2.1310 h1         1 JM5       0.036200
     36 H21          0.8930    -0.3520    -0.2490 hn         1 JM5       0.472000
@<TRIPOS>BOND
     1     1     9 1   
     2     1    15 1   
     3     1    16 1   
     4     2     9 1   
     5     2    17 1   
     6     2    18 1   
     7     3     4 1   
     8     3    12 1   
     9     3    14 2   
    10     4     5 1   
    11     4    19 1   
    12     4    20 1   
    13     5     6 1   
    14     6     7 1   
    15     6    21 1   
    16     6    22 1   
    17     7     8 1   
    18     7    23 1   
    19     7    24 1   
    20     8    25 1   
    21     8    26 1   
    22     8    27 1   
    23     9    10 1   
    24     9    28 1   
    25    10    13 1   
    26    10    29 1   
    27    10    30 1   
    28    11    12 1   
    29    11    13 1   
    30    11    31 1   
    31    11    35 1   
    32    12    36 1   
    33    13    32 1   
    34    13    33 1   
    35    14    34 1   
@<TRIPOS>SUBSTRUCTURE
     1 JM5         1 TEMP              0 ****  ****    0 ROOT
