@<TRIPOS>MOLECULE
JM5
   36    35     1     0     0
SMALL
abcg2


@<TRIPOS>ATOM
      1 C           -5.8610     0.1000     0.6360 c          1 JM5       0.701000
      2 N           -4.6530    -1.8340    -0.4280 n8         1 JM5      -1.013200
      3 C1           1.5070     0.5020    -0.5750 c2         1 JM5       0.633200
      4 C2           2.7440    -0.2990    -0.2550 c3         1 JM5       0.000300
      5 S3           4.2280     0.7180    -0.4130 ss         1 JM5      -0.345000
      6 C4           5.4350    -0.4750     0.2380 c3         1 JM5       0.029600
      7 C5           6.8240     0.1480     0.2480 c3         1 JM5      -0.063400
      8 C6           7.8660    -0.8120     0.8080 c3         1 JM5      -0.089100
      9 CA          -4.5400    -0.7020     0.4880 c3         1 JM5       0.011500
     10 CB          -3.4110     0.2380     0.0540 c3         1 JM5      -0.044400
     11 CD          -0.9410     0.4880    -0.4010 c3         1 JM5       0.205800
     12 NE           0.3480    -0.1710    -0.3510 nu         1 JM5      -0.945400
     13 CG          -2.0510    -0.4430     0.0580 c3         1 JM5      -0.088400
     14 NH           1.6330     1.6860    -1.0350 n2         1 JM5      -0.846100
     15 OA1         -6.8080    -0.2150    -0.1120 o          1 JM5      -0.728000
     16 OA2         -5.8570     1.0100     1.4870 o          1 JM5      -0.728000
     17 HN          -4.7210    -2.6920     0.1030 hn         1 JM5       0.387000
     18 HNA         -5.5520    -1.7320    -0.8880 hn         1 JM5       0.387000
     19 H2           2.6790    -0.6930     0.7630 h1         1 JM5       0.062700
     20 H2A          2.7980    -1.1590    -0.9270 h1         1 JM5       0.062700
     21 H4           5.1450    -0.7630     1.2510 h1         1 JM5       0.049700
     22 H4A          5.4280    -1.3770    -0.3780 h1         1 JM5       0.049700
     23 H5           7.1020     0.4420    -0.7670 hc         1 JM5       0.050200
     24 H5A          6.8070     1.0620     0.8460 hc         1 JM5       0.050200
     25 H6           7.6230    -1.1050     1.8310 hc         1 JM5       0.030033
     26 H6A          7.9310    -1.7210     0.2090 hc         1 JM5       0.030033
     27 H6B          8.8540    -0.3520     0.8220 hc         1 JM5       0.030033
     28 HA          -4.2780    -1.0710     1.4870 h1         1 JM5       0.018700
     29 HB          -3.6310     0.6170    -0.9520 hc         1 JM5       0.044200
     30 HBA         -3.3930     1.1030     0.7200 hc         1 JM5       0.044200
     31 HD          -0.9340     1.3900     0.2260 h1         1 JM5       0.036200
     32 HG          -1.8310    -0.7930     1.0730 hc         1 JM5       0.040700
     33 HGA         -2.0850    -1.3260    -0.5860 hc         1 JM5       0.040700
     34 HNH          0.7360     2.1250    -1.2210 hn         1 JM5       0.384400
     35 H20         -1.1430     0.8190    -1.4250 h1         1 JM5       0.036200
     36 H21          0.4060    -1.0030     0.2130 hn         1 JM5       0.472000
@<TRIPOS>BOND
     1     1     9 1   
     2     1    15 1   
     3     1    16 1   
     4     2     9 1   
     5     2    17 1   
     6     2    18 1   
     7     3     4 1   
     8     3    12 1   
     9     3    14 2   
    10     4     5 1   
    11     4    19 1   
    12     4    20 1   
    13     5     6 1   
    14     6     7 1   
    15     6    21 1   
    16     6    22 1   
    17     7     8 1   
    18     7    23 1   
    19     7    24 1   
    20     8    25 1   
    21     8    26 1   
    22     8    27 1   
    23     9    10 1   
    24     9    28 1   
    25    10    13 1   
    26    10    29 1   
    27    10    30 1   
    28    11    12 1   
    29    11    13 1   
    30    11    31 1   
    31    11    35 1   
    32    12    36 1   
    33    13    32 1   
    34    13    33 1   
    35    14    34 1   
@<TRIPOS>SUBSTRUCTURE
     1 JM5         1 TEMP              0 ****  ****    0 ROOT
