@<TRIPOS>MOLECULE
JM6
   36    35     1     0     0
SMALL
No Charge or Current Charge


@<TRIPOS>ATOM
      1 C           -5.7440    -0.4550    -1.1400 c          1 JM6       0.723000
      2 N           -4.5560     1.8710    -0.8170 n8         1 JM6      -0.989200
      3 C1           1.4060    -0.2110     1.5620 c2         1 JM6       0.626200
      4 C2           2.7100     0.4810     1.2430 c3         1 JM6      -0.177700
      5 C3           3.4700    -0.1730     0.0640 c3         1 JM6      -0.065400
      6 C4           4.8030     0.5300    -0.2560 c3         1 JM6       0.066600
      7 S5           5.6510    -0.3070    -1.6700 ss         1 JM6      -0.440000
      8 C6           7.1670     0.7450    -1.7980 c3         1 JM6       0.040900
      9 CA          -4.4020     0.3900    -1.0530 c3         1 JM6       0.018500
     10 CB          -3.4330    -0.2200    -0.0040 c3         1 JM6      -0.097400
     11 CD          -1.0390    -0.3680     0.9370 c3         1 JM6       0.221800
     12 NE           0.3230     0.1740     0.8190 nu         1 JM6      -0.907400
     13 CG          -1.9810     0.3180    -0.0750 c3         1 JM6      -0.094400
     14 OA1         -6.0020    -1.0290    -2.1900 o          1 JM6      -0.730500
     15 OA2         -6.5040    -0.4500    -0.1780 o          1 JM6      -0.730500
     16 NH1          1.2690    -1.1080     2.4520 n2         1 JM6      -0.856100
     17 HN          -5.0750     2.0110     0.0580 hn         1 JM6       0.374000
     18 HNA         -3.6330     2.2750    -0.6250 hn         1 JM6       0.374000
     19 H2           2.5270     1.5380     1.0120 hc         1 JM6       0.052200
     20 H2A          3.3570     0.4760     2.1290 hc         1 JM6       0.052200
     21 H3           3.6670    -1.2260     0.3000 hc         1 JM6       0.059700
     22 H3A          2.8340    -0.1600    -0.8300 hc         1 JM6       0.059700
     23 H4           4.6170     1.5800    -0.5190 h1         1 JM6       0.055700
     24 H4A          5.4590     0.5030     0.6240 h1         1 JM6       0.055700
     25 H6           6.8830     1.7850    -2.0040 h1         1 JM6       0.057033
     26 H6A          7.7300     0.7050    -0.8560 h1         1 JM6       0.057033
     27 H6B          7.8050     0.3790    -2.6130 h1         1 JM6       0.057033
     28 HA          -3.9160     0.2790    -2.0320 h1         1 JM6       0.043700
     29 HB          -3.8340    -0.0600     1.0050 hc         1 JM6       0.047200
     30 HBA         -3.4040    -1.3070    -0.1550 hc         1 JM6       0.047200
     31 HD          -1.0310    -1.4500     0.7460 h1         1 JM6       0.049200
     32 HDA         -1.4230    -0.2050     1.9540 h1         1 JM6       0.049200
     33 HNE          0.4980     0.8820     0.1110 hn         1 JM6       0.471000
     34 HG          -1.5920     0.1640    -1.0900 hc         1 JM6       0.029200
     35 HGA         -1.9780     1.3980     0.1130 hc         1 JM6       0.029200
     36 HNH1         2.1850    -1.2600     2.8930 hn         1 JM6       0.370400
@<TRIPOS>BOND
     1     1     9 1   
     2     1    14 1   
     3     1    15 1   
     4     2     9 1   
     5     2    17 1   
     6     2    18 1   
     7     3     4 1   
     8     3    12 1   
     9     3    16 2   
    10     4     5 1   
    11     4    19 1   
    12     4    20 1   
    13     5     6 1   
    14     5    21 1   
    15     5    22 1   
    16     6     7 1   
    17     6    23 1   
    18     6    24 1   
    19     7     8 1   
    20     8    25 1   
    21     8    26 1   
    22     8    27 1   
    23     9    10 1   
    24     9    28 1   
    25    10    13 1   
    26    10    29 1   
    27    10    30 1   
    28    11    12 1   
    29    11    13 1   
    30    11    31 1   
    31    11    32 1   
    32    12    33 1   
    33    13    34 1   
    34    13    35 1   
    35    16    36 1   
@<TRIPOS>SUBSTRUCTURE
     1 JM6         1 TEMP              0 ****  ****    0 ROOT
