@<TRIPOS>MOLECULE
JM6
   36    35     1     0     0
SMALL
abcg2


@<TRIPOS>ATOM
      1 C           -6.0770    -0.1340    -0.2470 c          1 JM6       0.723000
      2 N           -4.8680     2.0000     0.0070 n8         1 JM6      -0.989200
      3 C1           1.3500    -0.5270     0.3170 c2         1 JM6       0.626200
      4 C2           2.5700     0.3300     0.0450 c3         1 JM6      -0.177700
      5 C3           3.8960    -0.4170     0.0590 c3         1 JM6      -0.065400
      6 C4           5.0530     0.5230    -0.2420 c3         1 JM6       0.066600
      7 S5           6.6180    -0.3960    -0.2310 ss         1 JM6      -0.440000
      8 C6           7.7700     0.9540    -0.5620 c3         1 JM6       0.040900
      9 CA          -4.7640     0.6410    -0.4990 c3         1 JM6       0.018500
     10 CB          -3.6010    -0.1750     0.0890 c3         1 JM6      -0.097400
     11 CD          -1.1050    -0.4670     0.3290 c3         1 JM6       0.221800
     12 NE           0.1850     0.0730    -0.0330 nu         1 JM6      -0.907400
     13 CG          -2.2240     0.3640    -0.2780 c3         1 JM6      -0.094400
     14 OA1         -6.2770    -1.1280    -0.9740 o          1 JM6      -0.730500
     15 OA2         -6.8060     0.2630     0.6830 o          1 JM6      -0.730500
     16 NH1          1.3430    -1.7000     0.8270 n2         1 JM6      -0.856100
     17 HN          -5.2310     1.9560     0.9510 hn         1 JM6       0.374000
     18 HNA         -3.9540     2.4290     0.0680 hn         1 JM6       0.374000
     19 H2           2.4390     0.8280    -0.9200 hc         1 JM6       0.052200
     20 H2A          2.5910     1.1290     0.7940 hc         1 JM6       0.052200
     21 H3           4.0600    -0.8790     1.0360 hc         1 JM6       0.059700
     22 H3A          3.8750    -1.2250    -0.6770 hc         1 JM6       0.059700
     23 H4           4.9220     0.9930    -1.2190 h1         1 JM6       0.055700
     24 H4A          5.1020     1.3170     0.5070 h1         1 JM6       0.055700
     25 H6           7.5610     1.4250    -1.5210 h1         1 JM6       0.057033
     26 H6A          7.7330     1.7060     0.2250 h1         1 JM6       0.057033
     27 H6B          8.7730     0.5320    -0.5930 h1         1 JM6       0.057033
     28 HA          -4.6110     0.6890    -1.5840 h1         1 JM6       0.043700
     29 HB          -3.7050    -0.2090     1.1800 hc         1 JM6       0.047200
     30 HBA         -3.6810    -1.2070    -0.2640 hc         1 JM6       0.047200
     31 HD          -1.1730    -1.4980    -0.0250 h1         1 JM6       0.049200
     32 HDA         -1.2230    -0.5080     1.4200 h1         1 JM6       0.049200
     33 HNE          0.2200     1.0560    -0.2470 hn         1 JM6       0.471000
     34 HG          -2.1170     0.3800    -1.3670 hc         1 JM6       0.029200
     35 HGA         -2.1160     1.4000     0.0610 hc         1 JM6       0.029200
     36 HNH1         2.2870    -2.0220     1.0020 hn         1 JM6       0.370400
@<TRIPOS>BOND
     1     1     9 1   
     2     1    14 1   
     3     1    15 1   
     4     2     9 1   
     5     2    17 1   
     6     2    18 1   
     7     3     4 1   
     8     3    12 1   
     9     3    16 2   
    10     4     5 1   
    11     4    19 1   
    12     4    20 1   
    13     5     6 1   
    14     5    21 1   
    15     5    22 1   
    16     6     7 1   
    17     6    23 1   
    18     6    24 1   
    19     7     8 1   
    20     8    25 1   
    21     8    26 1   
    22     8    27 1   
    23     9    10 1   
    24     9    28 1   
    25    10    13 1   
    26    10    29 1   
    27    10    30 1   
    28    11    12 1   
    29    11    13 1   
    30    11    31 1   
    31    11    32 1   
    32    12    33 1   
    33    13    34 1   
    34    13    35 1   
    35    16    36 1   
@<TRIPOS>SUBSTRUCTURE
     1 JM6         1 TEMP              0 ****  ****    0 ROOT
