@<TRIPOS>MOLECULE
JM7
   33    32     1     0     0
SMALL
No Charge or Current Charge


@<TRIPOS>ATOM
      1 C            5.1780     0.8700    -0.0570 c          1 JM7       0.724000
      2 N            3.2160     2.1620    -1.2430 n8         1 JM7      -0.990200
      3 C1          -2.0210    -1.6660     0.6150 c2         1 JM7       0.636200
      4 C2          -3.4120    -1.0860     0.8440 c3         1 JM7      -0.002700
      5 S3          -3.7420     0.4260    -0.1950 ss         1 JM7      -0.344000
      6 C4          -5.4590     0.8200     0.3550 c3         1 JM7       0.031600
      7 C5          -5.9840     2.0680    -0.3730 c3         1 JM7      -0.075100
      8 CA           3.6370     1.2480    -0.1210 c3         1 JM7       0.021500
      9 CB           2.7540    -0.0300    -0.1130 c3         1 JM7      -0.099400
     10 CD           0.4270    -1.0770     0.2370 c3         1 JM7       0.207800
     11 NE          -0.9840    -0.7720     0.5140 nu         1 JM7      -0.949400
     12 CG           1.2500     0.2250     0.1660 c3         1 JM7      -0.090400
     13 NH          -1.7460    -2.9040     0.5810 n2         1 JM7      -0.842100
     14 OA1          5.6840     0.3070    -1.0210 o          1 JM7      -0.729500
     15 OA2          5.8200     1.2130     0.9280 o          1 JM7      -0.729500
     16 HN           3.4700     1.7220    -2.1360 hn         1 JM7       0.376500
     17 HNA          2.1920     2.2060    -1.2710 hn         1 JM7       0.376500
     18 H2          -4.1670    -1.8450     0.6080 h1         1 JM7       0.062700
     19 H2A         -3.5180    -0.8190     1.9030 h1         1 JM7       0.062700
     20 H4          -6.1120    -0.0360     0.1400 h1         1 JM7       0.049700
     21 H4A         -5.4580     0.9960     1.4390 h1         1 JM7       0.049700
     22 H5          -5.3480     2.9360    -0.1600 hc         1 JM7       0.039033
     23 H5A         -6.0000     1.9050    -1.4570 hc         1 JM7       0.039033
     24 H5B         -7.0040     2.3010    -0.0440 hc         1 JM7       0.039033
     25 HA           3.4220     1.7850     0.8140 h1         1 JM7       0.042700
     26 HB           2.8660    -0.5600    -1.0670 hc         1 JM7       0.046700
     27 HBA          3.1370    -0.7060     0.6620 hc         1 JM7       0.046700
     28 HD           0.8360    -1.7200     1.0290 h1         1 JM7       0.038200
     29 HDA          0.5170    -1.6120    -0.7190 h1         1 JM7       0.038200
     30 HNE         -1.2840     0.1950     0.4070 hn         1 JM7       0.472000
     31 HG           1.1490     0.7660     1.1150 hc         1 JM7       0.034200
     32 HGA          0.8320     0.8660    -0.6200 hc         1 JM7       0.034200
     33 HNH         -0.7320    -2.9640     0.4500 hn         1 JM7       0.383400
@<TRIPOS>BOND
     1     1     8 1   
     2     1    14 1   
     3     1    15 1   
     4     2     8 1   
     5     2    16 1   
     6     2    17 1   
     7     3     4 1   
     8     3    11 1   
     9     3    13 2   
    10     4     5 1   
    11     4    18 1   
    12     4    19 1   
    13     5     6 1   
    14     6     7 1   
    15     6    20 1   
    16     6    21 1   
    17     7    22 1   
    18     7    23 1   
    19     7    24 1   
    20     8     9 1   
    21     8    25 1   
    22     9    12 1   
    23     9    26 1   
    24     9    27 1   
    25    10    11 1   
    26    10    12 1   
    27    10    28 1   
    28    10    29 1   
    29    11    30 1   
    30    12    31 1   
    31    12    32 1   
    32    13    33 1   
@<TRIPOS>SUBSTRUCTURE
     1 JM7         1 TEMP              0 ****  ****    0 ROOT
