@<TRIPOS>MOLECULE
JM7
   33    32     1     0     0
SMALL
abcg2


@<TRIPOS>ATOM
      1 C            5.4360    -0.1200     0.2790 c          1 JM7       0.724000
      2 N            4.2560     1.9200    -0.4430 n8         1 JM7      -0.990200
      3 C1          -2.0060    -0.4350    -0.2530 c2         1 JM7       0.636200
      4 C2          -3.2070     0.2790     0.3120 c3         1 JM7      -0.002700
      5 S3          -4.7400    -0.4060    -0.3530 ss         1 JM7      -0.344000
      6 C4          -5.9150     0.6650     0.5280 c3         1 JM7       0.031600
      7 C5          -7.3330     0.2920     0.1320 c3         1 JM7      -0.075100
      8 CA           4.1390     0.7150     0.3620 c3         1 JM7       0.021500
      9 CB           2.9560    -0.1970    -0.0020 c3         1 JM7      -0.099400
     10 CD           0.4540    -0.4840    -0.1570 c3         1 JM7       0.207800
     11 NE          -0.8250     0.1510     0.0740 nu         1 JM7      -0.949400
     12 CG           1.5950     0.4650     0.1730 c3         1 JM7      -0.090400
     13 NH          -2.1810    -1.4780    -0.9680 n2         1 JM7      -0.842100
     14 OA1          6.1460     0.0270    -0.7360 o          1 JM7      -0.729500
     15 OA2          5.6420    -0.9100     1.2220 o          1 JM7      -0.729500
     16 HN           4.5820     1.6590    -1.3650 hn         1 JM7       0.376500
     17 HNA          3.3530     2.3610    -0.5640 hn         1 JM7       0.376500
     18 H2          -3.1990     0.1810     1.4010 h1         1 JM7       0.062700
     19 H2A         -3.1470     1.3470     0.0890 h1         1 JM7       0.062700
     20 H4          -5.7740     0.5440     1.6040 h1         1 JM7       0.049700
     21 H4A         -5.7110     1.7090     0.2820 h1         1 JM7       0.049700
     22 H5          -7.4970     0.4290    -0.9370 hc         1 JM7       0.039033
     23 H5A         -7.5560    -0.7460     0.3800 hc         1 JM7       0.039033
     24 H5B         -8.0480     0.9210     0.6620 hc         1 JM7       0.039033
     25 HA           4.0040     1.0170     1.4070 h1         1 JM7       0.042700
     26 HB           3.0700    -0.5370    -1.0380 hc         1 JM7       0.046700
     27 HBA          2.9980    -1.0890     0.6290 hc         1 JM7       0.046700
     28 HD           0.5470    -1.4030     0.4360 h1         1 JM7       0.038200
     29 HDA          0.5270    -0.7770    -1.2090 h1         1 JM7       0.038200
     30 HNE         -0.8490     0.8510     0.7990 hn         1 JM7       0.472000
     31 HG           1.4930     0.8140     1.2060 hc         1 JM7       0.034200
     32 HGA          1.5090     1.3450    -0.4700 hc         1 JM7       0.034200
     33 HNH         -1.3040    -1.8890    -1.2740 hn         1 JM7       0.383400
@<TRIPOS>BOND
     1     1     8 1   
     2     1    14 1   
     3     1    15 1   
     4     2     8 1   
     5     2    16 1   
     6     2    17 1   
     7     3     4 1   
     8     3    11 1   
     9     3    13 2   
    10     4     5 1   
    11     4    18 1   
    12     4    19 1   
    13     5     6 1   
    14     6     7 1   
    15     6    20 1   
    16     6    21 1   
    17     7    22 1   
    18     7    23 1   
    19     7    24 1   
    20     8     9 1   
    21     8    25 1   
    22     9    12 1   
    23     9    26 1   
    24     9    27 1   
    25    10    11 1   
    26    10    12 1   
    27    10    28 1   
    28    10    29 1   
    29    11    30 1   
    30    12    31 1   
    31    12    32 1   
    32    13    33 1   
@<TRIPOS>SUBSTRUCTURE
     1 JM7         1 TEMP              0 ****  ****    0 ROOT
