@<TRIPOS>MOLECULE
JM8
   36    35     1     0     0
SMALL
bcc


@<TRIPOS>ATOM
      1 C            6.0060    -0.2120     0.4240 c          1 JM8       0.902600
      2 N            4.7000     1.8760    -0.1980 n8         1 JM8      -0.892800
      3 C1          -1.3910    -0.4430    -0.6040 c2         1 JM8       0.631200
      4 C2          -2.6210     0.4020    -0.3310 c3         1 JM8      -0.167700
      5 C3          -3.9050    -0.4080    -0.2410 c3         1 JM8       0.022700
      6 S4          -5.2840     0.6980     0.1630 ss         1 JM8      -0.361200
      7 C5          -6.6600    -0.4860     0.1200 c3         1 JM8       0.020700
      8 C6          -7.9630     0.2300     0.4250 c3         1 JM8      -0.079100
      9 CA           4.6890     0.6010     0.5040 c3         1 JM8       0.013500
     10 CB           3.5310    -0.2660     0.0040 c3         1 JM8      -0.048400
     11 CD           1.0430    -0.5290    -0.3050 c3         1 JM8       0.221800
     12 NE          -0.2370     0.1280    -0.1890 nu         1 JM8      -0.853200
     13 CG           2.1670     0.3980     0.1310 c3         1 JM8      -0.090400
     14 NH          -1.3720    -1.5730    -1.2060 n2         1 JM8      -0.865100
     15 OA1          6.8620     0.1530    -0.4060 o          1 JM8      -0.839800
     16 OA2          6.0920    -1.1890     1.1970 o          1 JM8      -0.839800
     17 HN           5.4180     2.4630     0.2090 hn         1 JM8       0.326300
     18 HNA          5.0220     1.7090    -1.1450 hn         1 JM8       0.326300
     19 H2          -2.4770     0.9600     0.5970 hc         1 JM8       0.066200
     20 H2A         -2.7090     1.1470    -1.1270 hc         1 JM8       0.066200
     21 H3          -4.1270    -0.8970    -1.1920 h1         1 JM8       0.061700
     22 H3A         -3.8200    -1.1810     0.5250 h1         1 JM8       0.061700
     23 H5          -6.6960    -0.9500    -0.8680 h1         1 JM8       0.055200
     24 H5A         -6.4740    -1.2740     0.8520 h1         1 JM8       0.055200
     25 H6          -8.7920    -0.4780     0.3960 hc         1 JM8       0.041700
     26 H6A         -7.9470     0.6820     1.4170 hc         1 JM8       0.041700
     27 H6B         -8.1690     1.0140    -0.3030 hc         1 JM8       0.041700
     28 HA           4.5010     0.8140     1.5630 h1         1 JM8       0.035700
     29 HB           3.7080    -0.5330    -1.0450 hc         1 JM8       0.042200
     30 HBA          3.5370    -1.2030     0.5650 hc         1 JM8       0.042200
     31 HD           1.0620    -1.4480     0.2940 h1         1 JM8       0.046200
     32 HG           2.0060     0.6990     1.1730 hc         1 JM8       0.039200
     33 HGA          2.1430     1.3110    -0.4670 hc         1 JM8       0.039200
     34 HNH         -2.3040    -1.8470    -1.4900 hn         1 JM8       0.364400
     35 H20          1.1950    -0.8350    -1.3440 h1         1 JM8       0.046200
     36 H21         -0.2980     0.9090     0.4430 hn         1 JM8       0.423800
@<TRIPOS>BOND
     1     1     9 1   
     2     1    15 1   
     3     1    16 1   
     4     2     9 1   
     5     2    17 1   
     6     2    18 1   
     7     3     4 1   
     8     3    12 1   
     9     3    14 2   
    10     4     5 1   
    11     4    19 1   
    12     4    20 1   
    13     5     6 1   
    14     5    21 1   
    15     5    22 1   
    16     6     7 1   
    17     7     8 1   
    18     7    23 1   
    19     7    24 1   
    20     8    25 1   
    21     8    26 1   
    22     8    27 1   
    23     9    10 1   
    24     9    28 1   
    25    10    13 1   
    26    10    29 1   
    27    10    30 1   
    28    11    12 1   
    29    11    13 1   
    30    11    31 1   
    31    11    35 1   
    32    12    36 1   
    33    13    32 1   
    34    13    33 1   
    35    14    34 1   
@<TRIPOS>SUBSTRUCTURE
     1 JM8         1 TEMP              0 ****  ****    0 ROOT
