@<TRIPOS>MOLECULE
JM8
   36    35     1     0     0
SMALL
No Charge or Current Charge


@<TRIPOS>ATOM
      1 C            5.5070    -0.4180     1.2670 c          1 JM8       0.692000
      2 N            4.3460     1.8900     0.8030 n8         1 JM8      -1.003200
      3 C1          -1.4470    -0.3620    -1.8830 c2         1 JM8       0.631200
      4 C2          -2.7740     0.3250    -1.6870 c3         1 JM8      -0.167700
      5 C3          -3.5900    -0.2970    -0.5400 c3         1 JM8       0.070600
      6 S4          -5.2050     0.5830    -0.3560 ss         1 JM8      -0.457000
      7 C5          -5.9240    -0.3660     1.0580 c3         1 JM8       0.068600
      8 C6          -7.3130     0.1830     1.4220 c3         1 JM8      -0.079100
      9 CA           4.1720     0.4150     1.0740 c3         1 JM8       0.013500
     10 CB           3.2780    -0.2480    -0.0100 c3         1 JM8      -0.048400
     11 CD           0.9550    -0.4560    -1.0970 c3         1 JM8       0.221800
     12 NE          -0.4220     0.0630    -1.0810 nu         1 JM8      -0.908400
     13 CG           1.8180     0.2680    -0.0440 c3         1 JM8      -0.090400
     14 NH          -1.2390    -1.2980    -2.7180 n2         1 JM8      -0.865100
     15 OA1          6.3900    -0.3080     0.4250 o          1 JM8      -0.734500
     16 OA2          5.6510    -1.0510     2.3040 o          1 JM8      -0.734500
     17 HN           4.8930     2.3080     1.5670 hn         1 JM8       0.381500
     18 HNA          4.9660     1.9960    -0.0090 hn         1 JM8       0.381500
     19 H2          -2.6220     1.3920    -1.4850 hc         1 JM8       0.066200
     20 H2A         -3.3610     0.2710    -2.6110 hc         1 JM8       0.066200
     21 H3          -3.7790    -1.3590    -0.7490 h1         1 JM8       0.061700
     22 H3A         -3.0290    -0.2230     0.4020 h1         1 JM8       0.061700
     23 H5          -6.0070    -1.4250     0.7780 h1         1 JM8       0.055200
     24 H5A         -5.2550    -0.2860     1.9250 h1         1 JM8       0.055200
     25 H6          -7.7380    -0.3810     2.2610 hc         1 JM8       0.041700
     26 H6A         -7.2460     1.2380     1.7150 hc         1 JM8       0.041700
     27 H6B         -7.9970     0.1000     0.5690 hc         1 JM8       0.041700
     28 HA           3.6290     0.3380     2.0270 h1         1 JM8       0.035700
     29 HB           3.7390    -0.1130    -0.9970 hc         1 JM8       0.042200
     30 HBA          3.2560    -1.3290     0.1770 hc         1 JM8       0.042200
     31 HD           0.9530    -1.5330    -0.8820 h1         1 JM8       0.046200
     32 HG           1.3670     0.1330     0.9470 hc         1 JM8       0.039200
     33 HGA          1.8140     1.3440    -0.2590 hc         1 JM8       0.039200
     34 HNH         -2.1180    -1.4820    -3.2190 hn         1 JM8       0.364400
     35 H20          1.4000    -0.3100    -2.0910 h1         1 JM8       0.046200
     36 H21         -0.6330     0.8420    -0.4620 hn         1 JM8       0.479000
@<TRIPOS>BOND
     1     1     9 1   
     2     1    15 1   
     3     1    16 1   
     4     2     9 1   
     5     2    17 1   
     6     2    18 1   
     7     3     4 1   
     8     3    12 1   
     9     3    14 2   
    10     4     5 1   
    11     4    19 1   
    12     4    20 1   
    13     5     6 1   
    14     5    21 1   
    15     5    22 1   
    16     6     7 1   
    17     7     8 1   
    18     7    23 1   
    19     7    24 1   
    20     8    25 1   
    21     8    26 1   
    22     8    27 1   
    23     9    10 1   
    24     9    28 1   
    25    10    13 1   
    26    10    29 1   
    27    10    30 1   
    28    11    12 1   
    29    11    13 1   
    30    11    31 1   
    31    11    35 1   
    32    12    36 1   
    33    13    32 1   
    34    13    33 1   
    35    14    34 1   
@<TRIPOS>SUBSTRUCTURE
     1 JM8         1 TEMP              0 ****  ****    0 ROOT
