@<TRIPOS>MOLECULE
JM9
  146   145     1     0     0
SMALL
No Charge or Current Charge


@<TRIPOS>ATOM
      1 C10        122.1710   108.7970    91.9540 c3         1 JM9      -0.077400
      2 C11        123.7090   108.9140    92.0350 c3         1 JM9      -0.075400
      3 C12        124.4430   108.7830    90.6830 c3         1 JM9      -0.077400
      4 C13        125.9690   108.9430    90.8370 c3         1 JM9      -0.073400
      5 C14        126.7490   108.7270    89.5210 c3         1 JM9      -0.137400
      6 C15        128.2590   108.8250    89.7480 c          1 JM9       0.598100
      7 C01        114.1940   112.5450    94.4150 c3         1 JM9      -0.089100
      8 C02        114.9120   112.4720    93.0540 c3         1 JM9      -0.075400
      9 C03        116.4480   112.5730    93.1770 c3         1 JM9      -0.078400
     10 C04        117.1730   112.4720    91.8180 c3         1 JM9      -0.075400
     11 C05        118.7110   112.5030    91.9520 c3         1 JM9      -0.077400
     12 C06        119.4360   112.3160    90.6000 c3         1 JM9      -0.074400
     13 C07        120.9810   112.3980    90.6830 c3         1 JM9      -0.071400
     14 C08        121.6730   111.3300    91.5680 c3         1 JM9      -0.076400
     15 C09        121.4540   109.8710    91.0970 c3         1 JM9      -0.076400
     16 O16        128.8850   108.0280    90.4340 o          1 JM9      -0.482000
     17 O17        128.8100   109.9080    89.1050 os         1 JM9      -0.441100
     18 C18        130.2520   110.0850    89.1530 c3         1 JM9       0.124300
     19 C19        130.5350   111.6120    89.1210 c3         1 JM9       0.161600
     20 O20        129.8290   112.2560    90.2060 os         1 JM9      -0.447100
     21 C21        130.2700   112.0880    91.4930 c          1 JM9       0.596100
     22 O22        131.3180   111.5400    91.8030 o          1 JM9      -0.479500
     23 C23        129.2740   112.6630    92.5020 c3         1 JM9      -0.135400
     24 C24        128.4110   111.5390    93.1270 c3         1 JM9      -0.072400
     25 C25        127.0910   112.0460    93.7480 c3         1 JM9      -0.074900
     26 C26        126.2950   110.9270    94.4560 c3         1 JM9      -0.078400
     27 C27        124.8700   111.3560    94.8710 c3         1 JM9      -0.075900
     28 C28        124.1030   110.2370    95.6100 c3         1 JM9      -0.075900
     29 C29        122.5890   110.5110    95.7410 c3         1 JM9      -0.075400
     30 C30        121.8630   109.4500    96.6000 c3         1 JM9      -0.072400
     31 C31        120.3200   109.5590    96.5830 c3         1 JM9      -0.074400
     32 C32        119.6690   109.0040    95.2930 c3         1 JM9      -0.076400
     33 C33        118.1250   109.0890    95.3020 c3         1 JM9      -0.073400
     34 C34        117.4200   108.2650    94.1880 c3         1 JM9      -0.061200
     35 C35        117.9130   108.6080    92.7640 c3         1 JM9      -0.089100
     36 C36        115.8840   108.4060    94.2870 c3         1 JM9      -0.089100
     37 C37        130.9080   109.3480    87.9470 c3         1 JM9       0.161600
     38 O38        130.3430   108.0270    87.8440 os         1 JM9      -0.447100
     39 C39        130.9110   107.1110    87.0030 c          1 JM9       0.596100
     40 O40        132.0020   107.2430    86.4660 o          1 JM9      -0.479500
     41 C41        130.0830   105.8250    86.9740 c3         1 JM9      -0.135400
     42 C42        130.3430   104.9290    88.2170 c3         1 JM9      -0.072400
     43 C43        129.1350   104.0480    88.6270 c3         1 JM9      -0.074900
     44 C44        128.0060   104.8330    89.3410 c3         1 JM9      -0.078400
     45 C45        126.7700   103.9740    89.6810 c3         1 JM9      -0.075900
     46 C46        125.6740   104.7710    90.4340 c3         1 JM9      -0.075900
     47 C47        124.4210   103.9390    90.8090 c3         1 JM9      -0.075400
     48 C48        123.5440   103.4750    89.6150 c3         1 JM9      -0.072400
     49 C49        122.7740   104.5980    88.8720 c3         1 JM9      -0.074400
     50 C50        121.5790   105.1770    89.6680 c3         1 JM9      -0.076400
     51 C51        120.8090   106.2730    88.8910 c3         1 JM9      -0.073400
     52 C52        119.5580   106.8420    89.6190 c3         1 JM9      -0.061200
     53 C53        118.4550   105.7800    89.8440 c3         1 JM9      -0.089100
     54 C54        118.9890   108.0670    88.8670 c3         1 JM9      -0.089100
     55 H1         121.7670   108.8290    92.9720 hc         1 JM9       0.041200
     56 H2         121.9210   107.8060    91.5610 hc         1 JM9       0.041200
     57 H3         124.0770   108.1320    92.7110 hc         1 JM9       0.040700
     58 H4         123.9780   109.8680    92.4990 hc         1 JM9       0.040700
     59 H5         124.0800   109.5460    89.9840 hc         1 JM9       0.038700
     60 H6         124.2140   107.8050    90.2420 hc         1 JM9       0.038700
     61 H7         126.3280   108.2270    91.5870 hc         1 JM9       0.054200
     62 H8         126.1860   109.9470    91.2210 hc         1 JM9       0.054200
     63 H9         126.4360   109.4710    88.7800 hc         1 JM9       0.071700
     64 H10        126.5240   107.7260    89.1390 hc         1 JM9       0.071700
     65 H11        113.1090   112.4670    94.2780 hc         1 JM9       0.031033
     66 H12        114.5170   111.7270    95.0690 hc         1 JM9       0.031033
     67 H13        114.4090   113.4970    94.9160 hc         1 JM9       0.031033
     68 H14        114.6490   111.5260    92.5640 hc         1 JM9       0.036700
     69 H15        114.5450   113.2800    92.4100 hc         1 JM9       0.036700
     70 H16        116.8050   111.7720    93.8350 hc         1 JM9       0.038200
     71 H17        116.7120   113.5230    93.6580 hc         1 JM9       0.038200
     72 H18        116.8490   113.2980    91.1730 hc         1 JM9       0.036200
     73 H19        116.8730   111.5430    91.3180 hc         1 JM9       0.036200
     74 H20        119.0230   111.7140    92.6470 hc         1 JM9       0.038700
     75 H21        119.0150   113.4590    92.3970 hc         1 JM9       0.038700
     76 H22        119.0900   113.0930    89.9070 hc         1 JM9       0.037200
     77 H23        119.1390   111.3580    90.1550 hc         1 JM9       0.037200
     78 H24        121.3880   112.3280    89.6670 hc         1 JM9       0.037200
     79 H25        121.2590   113.3910    91.0550 hc         1 JM9       0.037200
     80 H26        121.3390   111.4340    92.6060 hc         1 JM9       0.037700
     81 H27        122.7470   111.5510    91.5660 hc         1 JM9       0.037700
     82 H28        121.7650   109.7730    90.0500 hc         1 JM9       0.039200
     83 H29        120.3810   109.6510    91.1190 hc         1 JM9       0.039200
     84 H30        130.6770   109.6790    90.0800 h1         1 JM9       0.103700
     85 H31        131.6160   111.7980    89.1840 h1         1 JM9       0.066450
     86 H32        130.1860   112.0140    88.1610 h1         1 JM9       0.066450
     87 H33        129.8160   113.1840    93.3000 hc         1 JM9       0.070950
     88 H34        128.6070   113.3590    91.9800 hc         1 JM9       0.070950
     89 H35        128.1680   110.8010    92.3520 hc         1 JM9       0.057950
     90 H36        129.0030   111.0110    93.8860 hc         1 JM9       0.057950
     91 H37        127.3060   112.8450    94.4680 hc         1 JM9       0.038950
     92 H38        126.4720   112.4840    92.9550 hc         1 JM9       0.038950
     93 H39        126.2210   110.0600    93.7880 hc         1 JM9       0.040700
     94 H40        126.8500   110.5970    95.3430 hc         1 JM9       0.040700
     95 H41        124.9260   112.2420    95.5170 hc         1 JM9       0.037450
     96 H42        124.3120   111.6540    93.9750 hc         1 JM9       0.037450
     97 H43        124.2400   109.2880    95.0770 hc         1 JM9       0.037950
     98 H44        124.5410   110.1060    96.6080 hc         1 JM9       0.037950
     99 H45        122.4320   111.5010    96.1860 hc         1 JM9       0.038450
    100 H46        122.1520   110.5400    94.7370 hc         1 JM9       0.038450
    101 H47        122.1540   108.4450    96.2700 hc         1 JM9       0.038200
    102 H48        122.2100   109.5490    97.6360 hc         1 JM9       0.038200
    103 H49        120.0230   110.6050    96.7300 hc         1 JM9       0.037450
    104 H50        119.9260   108.9970    97.4390 hc         1 JM9       0.037450
    105 H51        120.0480   109.5620    94.4290 hc         1 JM9       0.038200
    106 H52        119.9730   107.9580    95.1630 hc         1 JM9       0.038200
    107 H53        117.7600   108.7330    96.2740 hc         1 JM9       0.036700
    108 H54        117.8290   110.1420    95.2260 hc         1 JM9       0.036700
    109 H55        117.6570   107.2080    94.3640 hc         1 JM9       0.043700
    110 H56        117.3560   108.0340    92.0140 hc         1 JM9       0.032367
    111 H57        117.7750   109.6710    92.5490 hc         1 JM9       0.032367
    112 H58        118.9740   108.3630    92.6450 hc         1 JM9       0.032367
    113 H59        115.3870   107.7660    93.5470 hc         1 JM9       0.032367
    114 H60        115.5300   108.1090    95.2810 hc         1 JM9       0.032367
    115 H61        115.5750   109.4420    94.1070 hc         1 JM9       0.032367
    116 H62        131.9930   109.3020    88.1130 h1         1 JM9       0.066450
    117 H63        130.7290   109.9110    87.0220 h1         1 JM9       0.066450
    118 H64        129.0300   106.1220    86.9920 hc         1 JM9       0.070950
    119 H65        130.3010   105.2580    86.0620 hc         1 JM9       0.070950
    120 H66        131.2100   104.2880    88.0130 hc         1 JM9       0.057950
    121 H67        130.6210   105.5540    89.0760 hc         1 JM9       0.057950
    122 H68        128.7350   103.5450    87.7380 hc         1 JM9       0.038950
    123 H69        129.4900   103.2590    89.3020 hc         1 JM9       0.038950
    124 H70        128.4060   105.2660    90.2660 hc         1 JM9       0.040700
    125 H71        127.6820   105.6700    88.7140 hc         1 JM9       0.040700
    126 H72        126.3600   103.5700    88.7490 hc         1 JM9       0.037450
    127 H73        127.0800   103.1200    90.2950 hc         1 JM9       0.037450
    128 H74        126.1090   105.1710    91.3580 hc         1 JM9       0.037950
    129 H75        125.3760   105.6390    89.8360 hc         1 JM9       0.037950
    130 H76        123.8060   104.5210    91.5050 hc         1 JM9       0.038450
    131 H77        124.7470   103.0530    91.3670 hc         1 JM9       0.038450
    132 H78        124.1680   102.9370    88.8930 hc         1 JM9       0.038200
    133 H79        122.8170   102.7390    89.9820 hc         1 JM9       0.038200
    134 H80        123.4600   105.4050    88.5930 hc         1 JM9       0.037450
    135 H81        122.3910   104.1820    87.9320 hc         1 JM9       0.037450
    136 H82        120.9010   104.3520    89.9160 hc         1 JM9       0.038200
    137 H83        121.9340   105.5950    90.6170 hc         1 JM9       0.038200
    138 H84        121.5040   107.0970    88.6870 hc         1 JM9       0.036700
    139 H85        120.5030   105.8750    87.9160 hc         1 JM9       0.036700
    140 H86        119.8760   107.1910    90.6080 hc         1 JM9       0.043700
    141 H87        117.5650   106.2360    90.2940 hc         1 JM9       0.032367
    142 H88        118.1570   105.3190    88.8950 hc         1 JM9       0.032367
    143 H89        118.7950   104.9900    90.5230 hc         1 JM9       0.032367
    144 H90        119.7580   108.8360    88.7310 hc         1 JM9       0.032367
    145 H91        118.6160   107.7780    87.8770 hc         1 JM9       0.032367
    146 H92        118.1610   108.5170    89.4290 hc         1 JM9       0.032367
@<TRIPOS>BOND
     1     1     2 1   
     2     1    15 1   
     3     1    55 1   
     4     1    56 1   
     5     2     3 1   
     6     2    57 1   
     7     2    58 1   
     8     3     4 1   
     9     3    59 1   
    10     3    60 1   
    11     4     5 1   
    12     4    61 1   
    13     4    62 1   
    14     5     6 1   
    15     5    63 1   
    16     5    64 1   
    17     6    16 2   
    18     6    17 1   
    19     7     8 1   
    20     7    65 1   
    21     7    66 1   
    22     7    67 1   
    23     8     9 1   
    24     8    68 1   
    25     8    69 1   
    26     9    10 1   
    27     9    70 1   
    28     9    71 1   
    29    10    11 1   
    30    10    72 1   
    31    10    73 1   
    32    11    12 1   
    33    11    74 1   
    34    11    75 1   
    35    12    13 1   
    36    12    76 1   
    37    12    77 1   
    38    13    14 1   
    39    13    78 1   
    40    13    79 1   
    41    14    15 1   
    42    14    80 1   
    43    14    81 1   
    44    15    82 1   
    45    15    83 1   
    46    17    18 1   
    47    18    19 1   
    48    18    37 1   
    49    18    84 1   
    50    19    20 1   
    51    19    85 1   
    52    19    86 1   
    53    20    21 1   
    54    21    22 2   
    55    21    23 1   
    56    23    24 1   
    57    23    87 1   
    58    23    88 1   
    59    24    25 1   
    60    24    89 1   
    61    24    90 1   
    62    25    26 1   
    63    25    91 1   
    64    25    92 1   
    65    26    27 1   
    66    26    93 1   
    67    26    94 1   
    68    27    28 1   
    69    27    95 1   
    70    27    96 1   
    71    28    29 1   
    72    28    97 1   
    73    28    98 1   
    74    29    30 1   
    75    29    99 1   
    76    29   100 1   
    77    30    31 1   
    78    30   101 1   
    79    30   102 1   
    80    31    32 1   
    81    31   103 1   
    82    31   104 1   
    83    32    33 1   
    84    32   105 1   
    85    32   106 1   
    86    33    34 1   
    87    33   107 1   
    88    33   108 1   
    89    34    35 1   
    90    34    36 1   
    91    34   109 1   
    92    35   110 1   
    93    35   111 1   
    94    35   112 1   
    95    36   113 1   
    96    36   114 1   
    97    36   115 1   
    98    37    38 1   
    99    37   116 1   
   100    37   117 1   
   101    38    39 1   
   102    39    40 2   
   103    39    41 1   
   104    41    42 1   
   105    41   118 1   
   106    41   119 1   
   107    42    43 1   
   108    42   120 1   
   109    42   121 1   
   110    43    44 1   
   111    43   122 1   
   112    43   123 1   
   113    44    45 1   
   114    44   124 1   
   115    44   125 1   
   116    45    46 1   
   117    45   126 1   
   118    45   127 1   
   119    46    47 1   
   120    46   128 1   
   121    46   129 1   
   122    47    48 1   
   123    47   130 1   
   124    47   131 1   
   125    48    49 1   
   126    48   132 1   
   127    48   133 1   
   128    49    50 1   
   129    49   134 1   
   130    49   135 1   
   131    50    51 1   
   132    50   136 1   
   133    50   137 1   
   134    51    52 1   
   135    51   138 1   
   136    51   139 1   
   137    52    53 1   
   138    52    54 1   
   139    52   140 1   
   140    53   141 1   
   141    53   142 1   
   142    53   143 1   
   143    54   144 1   
   144    54   145 1   
   145    54   146 1   
@<TRIPOS>SUBSTRUCTURE
     1 JM9         1 TEMP              0 ****  ****    0 ROOT
