@<TRIPOS>MOLECULE
JM9
  146   145     1     0     0
SMALL
abcg2


@<TRIPOS>ATOM
      1 C10        122.3410   108.6770    91.4650 c3         1 JM9      -0.077400
      2 C11        123.8230   108.7690    91.8010 c3         1 JM9      -0.075400
      3 C12        124.7120   109.0270    90.5940 c3         1 JM9      -0.077400
      4 C13        126.1880   108.9650    90.9490 c3         1 JM9      -0.073400
      5 C14        127.0780   109.2170    89.7440 c3         1 JM9      -0.137400
      6 C15        128.5410   109.1360    90.0700 c          1 JM9       0.598100
      7 C01        114.2710   111.2190    94.2280 c3         1 JM9      -0.089100
      8 C02        115.0400   111.3610    92.9220 c3         1 JM9      -0.075400
      9 C03        116.5210   111.6380    93.1440 c3         1 JM9      -0.078400
     10 C04        117.3170   111.7840    91.8530 c3         1 JM9      -0.075400
     11 C05        118.8010   112.0180    92.1010 c3         1 JM9      -0.077400
     12 C06        119.5990   112.2160    90.8170 c3         1 JM9      -0.074400
     13 C07        121.1010   112.3810    91.0400 c3         1 JM9      -0.071400
     14 C08        121.7960   111.1730    91.6660 c3         1 JM9      -0.076400
     15 C09        121.7240   109.9120    90.8140 c3         1 JM9      -0.076400
     16 O16        128.9950   108.6250    91.0630 o          1 JM9      -0.482000
     17 O17        129.2860   109.7070    89.1240 os         1 JM9      -0.441100
     18 C18        130.7040   109.7390    89.2860 c3         1 JM9       0.124300
     19 C19        131.1480   111.1860    89.1330 c3         1 JM9       0.161600
     20 O20        130.3030   112.0360    89.9030 os         1 JM9      -0.447100
     21 C21        130.4280   112.0570    91.2330 c          1 JM9       0.596100
     22 O22        131.3500   111.5470    91.8180 o          1 JM9      -0.479500
     23 C23        129.2620   112.7450    91.8900 c3         1 JM9      -0.135400
     24 C24        128.6650   111.8770    93.0050 c3         1 JM9      -0.072400
     25 C25        127.2400   112.2860    93.3560 c3         1 JM9      -0.074900
     26 C26        126.6040   111.3710    94.3970 c3         1 JM9      -0.078400
     27 C27        125.0980   111.5680    94.5270 c3         1 JM9      -0.075900
     28 C28        124.4460   110.6260    95.5330 c3         1 JM9      -0.075900
     29 C29        122.9230   110.6200    95.4530 c3         1 JM9      -0.075400
     30 C30        122.2670   109.7940    96.5530 c3         1 JM9      -0.072400
     31 C31        120.7450   109.6880    96.4480 c3         1 JM9      -0.074400
     32 C32        120.2470   108.8170    95.2980 c3         1 JM9      -0.076400
     33 C33        118.7320   108.6420    95.3100 c3         1 JM9      -0.073400
     34 C34        118.1900   107.5980    94.3320 c3         1 JM9      -0.061200
     35 C35        118.4780   107.9560    92.8780 c3         1 JM9      -0.089100
     36 C36        116.6920   107.4000    94.5380 c3         1 JM9      -0.089100
     37 C37        131.3060   108.8260    88.2350 c3         1 JM9       0.161600
     38 O38        130.7020   107.5590    88.4650 os         1 JM9      -0.447100
     39 C39        130.6180   106.6730    87.4760 c          1 JM9       0.596100
     40 O40        131.2410   106.7690    86.4500 o          1 JM9      -0.479500
     41 C41        129.6040   105.6050    87.7880 c3         1 JM9      -0.135400
     42 C42        129.6470   105.0160    89.2000 c3         1 JM9      -0.072400
     43 C43        128.3790   104.2290    89.5310 c3         1 JM9      -0.074900
     44 C44        127.1910   105.1230    89.8760 c3         1 JM9      -0.078400
     45 C45        125.9030   104.3530    90.1440 c3         1 JM9      -0.075900
     46 C46        124.7670   105.2630    90.5990 c3         1 JM9      -0.075900
     47 C47        123.4360   104.5490    90.8320 c3         1 JM9      -0.075400
     48 C48        122.7340   104.0750    89.5580 c3         1 JM9      -0.072400
     49 C49        122.1210   105.2000    88.7240 c3         1 JM9      -0.074400
     50 C50        120.8280   105.7650    89.3070 c3         1 JM9      -0.076400
     51 C51        120.2910   106.9470    88.5070 c3         1 JM9      -0.073400
     52 C52        119.0690   107.6340    89.1140 c3         1 JM9      -0.061200
     53 C53        117.8630   106.7050    89.2070 c3         1 JM9      -0.089100
     54 C54        118.7160   108.8880    88.3200 c3         1 JM9      -0.089100
     55 H1         121.7880   108.4490    92.3820 hc         1 JM9       0.041200
     56 H2         122.1910   107.8220    90.8000 hc         1 JM9       0.041200
     57 H3         124.1290   107.8300    92.2750 hc         1 JM9       0.040700
     58 H4         123.9960   109.5490    92.5480 hc         1 JM9       0.040700
     59 H5         124.4840   110.0060    90.1600 hc         1 JM9       0.038700
     60 H6         124.4910   108.2900    89.8130 hc         1 JM9       0.038700
     61 H7         126.4170   107.9870    91.3800 hc         1 JM9       0.054200
     62 H8         126.4030   109.7040    91.7280 hc         1 JM9       0.054200
     63 H9         126.8630   110.1920    89.2990 hc         1 JM9       0.071700
     64 H10        126.8690   108.4780    88.9610 hc         1 JM9       0.071700
     65 H11        113.2110   111.0310    94.0550 hc         1 JM9       0.031033
     66 H12        114.6620   110.3900    94.8210 hc         1 JM9       0.031033
     67 H13        114.3540   112.1230    94.8330 hc         1 JM9       0.031033
     68 H14        114.9310   110.4480    92.3280 hc         1 JM9       0.036700
     69 H15        114.6050   112.1670    92.3240 hc         1 JM9       0.036700
     70 H16        116.9530   110.8270    93.7400 hc         1 JM9       0.038200
     71 H17        116.6350   112.5470    93.7450 hc         1 JM9       0.038200
     72 H18        116.9020   112.6060    91.2590 hc         1 JM9       0.036200
     73 H19        117.1960   110.8790    91.2480 hc         1 JM9       0.036200
     74 H20        119.1950   111.1660    92.6650 hc         1 JM9       0.038700
     75 H21        118.9340   112.8930    92.7460 hc         1 JM9       0.038700
     76 H22        119.2210   113.1050    90.3020 hc         1 JM9       0.037200
     77 H23        119.4070   111.3790    90.1350 hc         1 JM9       0.037200
     78 H24        121.5810   112.6070    90.0820 hc         1 JM9       0.037200
     79 H25        121.2690   113.2550    91.6760 hc         1 JM9       0.037200
     80 H26        121.3700   110.9650    92.6530 hc         1 JM9       0.037700
     81 H27        122.8420   111.4380    91.8490 hc         1 JM9       0.037700
     82 H28        122.1920   110.1040    89.8430 hc         1 JM9       0.039200
     83 H29        120.6790   109.6780    90.5960 hc         1 JM9       0.039200
     84 H30        130.9730   109.3700    90.2780 h1         1 JM9       0.103700
     85 H31        132.1990   111.2880    89.4100 h1         1 JM9       0.066450
     86 H32        131.0290   111.5260    88.1040 h1         1 JM9       0.066450
     87 H33        129.5990   113.7020    92.2980 hc         1 JM9       0.070950
     88 H34        128.5000   112.9670    91.1420 hc         1 JM9       0.070950
     89 H35        128.6510   110.8320    92.6860 hc         1 JM9       0.057950
     90 H36        129.3020   111.9190    93.8920 hc         1 JM9       0.057950
     91 H37        127.2160   113.3230    93.7050 hc         1 JM9       0.038950
     92 H38        126.6340   112.2580    92.4430 hc         1 JM9       0.038950
     93 H39        126.7950   110.3290    94.1170 hc         1 JM9       0.040700
     94 H40        127.0870   111.5180    95.3680 hc         1 JM9       0.040700
     95 H41        124.8760   112.6060    94.7960 hc         1 JM9       0.037450
     96 H42        124.6430   111.4100    93.5420 hc         1 JM9       0.037450
     97 H43        124.8110   109.6080    95.3610 hc         1 JM9       0.037950
     98 H44        124.7640   110.8960    96.5460 hc         1 JM9       0.037950
     99 H45        122.5450   111.6480    95.4960 hc         1 JM9       0.038450
    100 H46        122.6310   110.2330    94.4710 hc         1 JM9       0.038450
    101 H47        122.6950   108.7850    96.5520 hc         1 JM9       0.038200
    102 H48        122.5290   110.2310    97.5210 hc         1 JM9       0.038200
    103 H49        120.3160   110.6920    96.3590 hc         1 JM9       0.037450
    104 H50        120.3580   109.2750    97.3850 hc         1 JM9       0.037450
    105 H51        120.5640   109.2420    94.3410 hc         1 JM9       0.038200
    106 H52        120.7240   107.8320    95.3660 hc         1 JM9       0.038200
    107 H53        118.4220   108.3590    96.3220 hc         1 JM9       0.036700
    108 H54        118.2490   109.6060    95.1060 hc         1 JM9       0.036700
    109 H55        118.6910   106.6470    94.5520 hc         1 JM9       0.043700
    110 H56        118.0680   107.2050    92.2000 hc         1 JM9       0.032367
    111 H57        118.0220   108.9160    92.6200 hc         1 JM9       0.032367
    112 H58        119.5460   108.0300    92.6720 hc         1 JM9       0.032367
    113 H59        116.2940   106.6360    93.8680 hc         1 JM9       0.032367
    114 H60        116.4660   107.0960    95.5610 hc         1 JM9       0.032367
    115 H61        116.1480   108.3280    94.3410 hc         1 JM9       0.032367
    116 H62        132.3910   108.7720    88.3490 h1         1 JM9       0.066450
    117 H63        131.0810   109.1880    87.2280 h1         1 JM9       0.066450
    118 H64        128.6280   106.0740    87.6170 hc         1 JM9       0.070950
    119 H65        129.6990   104.8120    87.0460 hc         1 JM9       0.070950
    120 H66        130.5220   104.3670    89.2830 hc         1 JM9       0.057950
    121 H67        129.7730   105.8030    89.9450 hc         1 JM9       0.057950
    122 H68        128.1230   103.5710    88.6930 hc         1 JM9       0.038950
    123 H69        128.5780   103.5710    90.3810 hc         1 JM9       0.038950
    124 H70        127.4490   105.7220    90.7570 hc         1 JM9       0.040700
    125 H71        127.0070   105.8450    89.0710 hc         1 JM9       0.040700
    126 H72        125.6190   103.8100    89.2370 hc         1 JM9       0.037450
    127 H73        126.0810   103.5920    90.9120 hc         1 JM9       0.037450
    128 H74        125.0700   105.7560    91.5280 hc         1 JM9       0.037950
    129 H75        124.6330   106.0690    89.8700 hc         1 JM9       0.037950
    130 H76        122.7680   105.2170    91.3860 hc         1 JM9       0.038450
    131 H77        123.6080   103.6920    91.4910 hc         1 JM9       0.038450
    132 H78        123.4390   103.5100    88.9430 hc         1 JM9       0.038200
    133 H79        121.9430   103.3660    89.8240 hc         1 JM9       0.038200
    134 H80        122.8490   106.0090    88.5970 hc         1 JM9       0.037450
    135 H81        121.9150   104.8270    87.7160 hc         1 JM9       0.037450
    136 H82        120.0830   104.9650    89.3510 hc         1 JM9       0.038200
    137 H83        120.9880   106.0810    90.3430 hc         1 JM9       0.038200
    138 H84        121.0910   107.6890    88.4030 hc         1 JM9       0.036700
    139 H85        120.0510   106.6220    87.4880 hc         1 JM9       0.036700
    140 H86        119.3330   107.9440    90.1310 hc         1 JM9       0.043700
    141 H87        117.0010   107.2260    89.6290 hc         1 JM9       0.032367
    142 H88        117.5790   106.3380    88.2180 hc         1 JM9       0.032367
    143 H89        118.0590   105.8380    89.8400 hc         1 JM9       0.032367
    144 H90        119.5560   109.5840    88.2770 hc         1 JM9       0.032367
    145 H91        118.4410   108.6350    87.2930 hc         1 JM9       0.032367
    146 H92        117.8720   109.4160    88.7690 hc         1 JM9       0.032367
@<TRIPOS>BOND
     1     1     2 1   
     2     1    15 1   
     3     1    55 1   
     4     1    56 1   
     5     2     3 1   
     6     2    57 1   
     7     2    58 1   
     8     3     4 1   
     9     3    59 1   
    10     3    60 1   
    11     4     5 1   
    12     4    61 1   
    13     4    62 1   
    14     5     6 1   
    15     5    63 1   
    16     5    64 1   
    17     6    16 2   
    18     6    17 1   
    19     7     8 1   
    20     7    65 1   
    21     7    66 1   
    22     7    67 1   
    23     8     9 1   
    24     8    68 1   
    25     8    69 1   
    26     9    10 1   
    27     9    70 1   
    28     9    71 1   
    29    10    11 1   
    30    10    72 1   
    31    10    73 1   
    32    11    12 1   
    33    11    74 1   
    34    11    75 1   
    35    12    13 1   
    36    12    76 1   
    37    12    77 1   
    38    13    14 1   
    39    13    78 1   
    40    13    79 1   
    41    14    15 1   
    42    14    80 1   
    43    14    81 1   
    44    15    82 1   
    45    15    83 1   
    46    17    18 1   
    47    18    19 1   
    48    18    37 1   
    49    18    84 1   
    50    19    20 1   
    51    19    85 1   
    52    19    86 1   
    53    20    21 1   
    54    21    22 2   
    55    21    23 1   
    56    23    24 1   
    57    23    87 1   
    58    23    88 1   
    59    24    25 1   
    60    24    89 1   
    61    24    90 1   
    62    25    26 1   
    63    25    91 1   
    64    25    92 1   
    65    26    27 1   
    66    26    93 1   
    67    26    94 1   
    68    27    28 1   
    69    27    95 1   
    70    27    96 1   
    71    28    29 1   
    72    28    97 1   
    73    28    98 1   
    74    29    30 1   
    75    29    99 1   
    76    29   100 1   
    77    30    31 1   
    78    30   101 1   
    79    30   102 1   
    80    31    32 1   
    81    31   103 1   
    82    31   104 1   
    83    32    33 1   
    84    32   105 1   
    85    32   106 1   
    86    33    34 1   
    87    33   107 1   
    88    33   108 1   
    89    34    35 1   
    90    34    36 1   
    91    34   109 1   
    92    35   110 1   
    93    35   111 1   
    94    35   112 1   
    95    36   113 1   
    96    36   114 1   
    97    36   115 1   
    98    37    38 1   
    99    37   116 1   
   100    37   117 1   
   101    38    39 1   
   102    39    40 2   
   103    39    41 1   
   104    41    42 1   
   105    41   118 1   
   106    41   119 1   
   107    42    43 1   
   108    42   120 1   
   109    42   121 1   
   110    43    44 1   
   111    43   122 1   
   112    43   123 1   
   113    44    45 1   
   114    44   124 1   
   115    44   125 1   
   116    45    46 1   
   117    45   126 1   
   118    45   127 1   
   119    46    47 1   
   120    46   128 1   
   121    46   129 1   
   122    47    48 1   
   123    47   130 1   
   124    47   131 1   
   125    48    49 1   
   126    48   132 1   
   127    48   133 1   
   128    49    50 1   
   129    49   134 1   
   130    49   135 1   
   131    50    51 1   
   132    50   136 1   
   133    50   137 1   
   134    51    52 1   
   135    51   138 1   
   136    51   139 1   
   137    52    53 1   
   138    52    54 1   
   139    52   140 1   
   140    53   141 1   
   141    53   142 1   
   142    53   143 1   
   143    54   144 1   
   144    54   145 1   
   145    54   146 1   
@<TRIPOS>SUBSTRUCTURE
     1 JM9         1 TEMP              0 ****  ****    0 ROOT
