@<TRIPOS>MOLECULE
JMA
   28    29     1     0     0
SMALL
bcc


@<TRIPOS>ATOM
      1 C10          2.2860     1.4810     0.4570 ca         1 JMA      -0.051000
      2 C13          1.7920    -0.8140    -0.1730 ca         1 JMA       0.039400
      3 C15          0.4820    -0.5070    -0.4920 ca         1 JMA      -0.117000
      4 O01         -6.3360    -1.6310     0.4050 oh         1 JMA      -0.598800
      5 C02         -5.1110    -1.1130     0.8760 c3         1 JMA       0.142400
      6 C03         -4.3910    -0.4290    -0.2700 c3         1 JMA      -0.081400
      7 C04         -3.0580     0.1540     0.1790 c3         1 JMA      -0.102400
      8 N06         -1.0910     1.4590    -0.5500 na         1 JMA      -0.147300
      9 C07         -0.8850     2.7570    -0.2130 cc         1 JMA       0.424700
     10 N08          0.3250     3.0160     0.1980 nd         1 JMA      -0.564100
     11 C09          0.9710     1.8080     0.1390 ca         1 JMA       0.072400
     12 C11          2.6820     0.1680     0.2980 ca         1 JMA       0.002400
     13 CL12         4.3060    -0.2670     0.6940 cl         1 JMA      -0.084400
     14 CL14         2.3300    -2.4420    -0.3620 cl         1 JMA      -0.083400
     15 C16          0.0940     0.8140    -0.3260 ca         1 JMA      -0.080200
     16 H101         2.9790     2.2300     0.8160 ha         1 JMA       0.166000
     17 H151        -0.1910    -1.2730    -0.8520 ha         1 JMA       0.154000
     18 H011        -6.8040    -2.0170     1.1510 ho         1 JMA       0.408000
     19 H021        -5.2670    -0.3880     1.6860 h1         1 JMA       0.018700
     20 H022        -4.4700    -1.9060     1.2830 h1         1 JMA       0.018700
     21 H031        -4.2260    -1.1490    -1.0770 hc         1 JMA       0.054700
     22 H032        -5.0230     0.3660    -0.6750 hc         1 JMA       0.054700
     23 H041        -3.2160     0.8680     0.9920 hc         1 JMA       0.055200
     24 H042        -2.4210    -0.6410     0.5770 hc         1 JMA       0.055200
     25 H051        -2.1460     0.1760    -1.7880 h1         1 JMA       0.063700
     26 H052        -2.9690     1.6640    -1.3650 h1         1 JMA       0.063700
     27 H071        -1.6810     3.4830    -0.2970 h5         1 JMA       0.063800
     28 C05         -2.3460     0.8640    -0.9650 c3         1 JMA       0.051300
@<TRIPOS>BOND
     1     1    11 ar  
     2     1    12 ar  
     3     1    16 1   
     4     2     3 ar  
     5     2    12 ar  
     6     2    14 1   
     7     3    15 ar  
     8     3    17 1   
     9     4     5 1   
    10     4    18 1   
    11     5     6 1   
    12     5    19 1   
    13     5    20 1   
    14     6     7 1   
    15     6    21 1   
    16     6    22 1   
    17     7    23 1   
    18     7    24 1   
    19     7    28 1   
    20     8     9 1   
    21     8    15 1   
    22     8    28 1   
    23     9    10 2   
    24     9    27 1   
    25    10    11 1   
    26    11    15 ar  
    27    12    13 1   
    28    25    28 1   
    29    26    28 1   
@<TRIPOS>SUBSTRUCTURE
     1 JMA         1 TEMP              0 ****  ****    0 ROOT
