@<TRIPOS>MOLECULE
JMA
   28    29     1     0     0
SMALL
No Charge or Current Charge


@<TRIPOS>ATOM
      1 C10          2.3280     1.4640     0.4080 ca         1 JMA      -0.033000
      2 C13          1.7570    -0.8560    -0.1670 ca         1 JMA       0.131000
      3 C15          0.4330    -0.4690    -0.4580 ca         1 JMA      -0.099000
      4 O01         -6.3380    -1.7710     0.3640 oh         1 JMA      -0.661000
      5 C02         -5.1470    -1.1630     0.8750 c3         1 JMA       0.165600
      6 C03         -4.3840    -0.4720    -0.2720 c3         1 JMA      -0.081400
      7 C04         -3.0810     0.2130     0.1970 c3         1 JMA      -0.102400
      8 N06         -1.0720     1.5490    -0.5020 na         1 JMA      -0.176600
      9 C07         -0.8490     2.8940    -0.1960 cc         1 JMA       0.424700
     10 N08          0.4320     3.0930     0.1870 nd         1 JMA      -0.564100
     11 C09          1.0050     1.8250     0.1130 ca         1 JMA       0.072400
     12 C11          2.7040     0.1110     0.2660 ca         1 JMA       0.094000
     13 Cl12         4.3660    -0.3530     0.6360 cl         1 JMA      -0.176000
     14 Cl14         2.2080    -2.5510    -0.3490 cl         1 JMA      -0.175000
     15 C16          0.1030     0.8860    -0.3040 ca         1 JMA      -0.080200
     16 H101         3.0450     2.2090     0.7390 ha         1 JMA       0.148000
     17 H151        -0.2990    -1.2010    -0.7890 ha         1 JMA       0.136000
     18 H011        -6.7900    -2.1980     1.1260 ho         1 JMA       0.447000
     19 H021        -5.3990    -0.4200     1.6430 h1         1 JMA       0.018700
     20 H022        -4.5010    -1.9220     1.3360 h1         1 JMA       0.018700
     21 H031        -4.1440    -1.2150    -1.0430 hc         1 JMA       0.054700
     22 H032        -5.0380     0.2760    -0.7380 hc         1 JMA       0.054700
     23 H041        -3.3190     0.9570     0.9670 hc         1 JMA       0.055200
     24 H042        -2.4290    -0.5350     0.6660 hc         1 JMA       0.055200
     25 H051        -2.0730     0.1680    -1.7290 h1         1 JMA       0.063700
     26 H052        -2.9600     1.6660    -1.4090 h1         1 JMA       0.063700
     27 H071        -1.6270     3.6450    -0.2690 h5         1 JMA       0.063800
     28 C05         -2.3160     0.9030    -0.9520 c3         1 JMA       0.080600
@<TRIPOS>BOND
     1     1    11 ar  
     2     1    12 ar  
     3     1    16 1   
     4     2     3 ar  
     5     2    12 ar  
     6     2    14 1   
     7     3    15 ar  
     8     3    17 1   
     9     4     5 1   
    10     4    18 1   
    11     5     6 1   
    12     5    19 1   
    13     5    20 1   
    14     6     7 1   
    15     6    21 1   
    16     6    22 1   
    17     7    23 1   
    18     7    24 1   
    19     7    28 1   
    20     8     9 1   
    21     8    15 1   
    22     8    28 1   
    23     9    10 2   
    24     9    27 1   
    25    10    11 1   
    26    11    15 ar  
    27    12    13 1   
    28    25    28 1   
    29    26    28 1   
@<TRIPOS>SUBSTRUCTURE
     1 JMA         1 TEMP              0 ****  ****    0 ROOT
