@<TRIPOS>MOLECULE
JMB
   37    38     1     0     0
SMALL
abcg2


@<TRIPOS>ATOM
      1 C            7.3940    -0.0690    -0.9570 c3         1 JMB      -0.092100
      2 N            3.6720     0.1820    -0.1080 ny         1 JMB      -0.825000
      3 C8          -0.6460    -0.7880     0.5890 ca         1 JMB       0.121000
      4 C7          -1.3250     0.3640     0.1920 cp         1 JMB       0.047000
      5 C10         -2.7630     0.3820    -0.1500 cp         1 JMB      -0.086000
      6 C15         -3.2670    -0.3980    -1.1900 ca         1 JMB      -0.081000
      7 C14         -4.6110    -0.3340    -1.5260 ca         1 JMB      -0.105000
      8 C13         -5.4690     0.5040    -0.8240 ca         1 JMB      -0.080000
      9 C12         -4.9740     1.2840     0.2120 ca         1 JMB      -0.105000
     10 C11         -3.6280     1.2260     0.5450 ca         1 JMB      -0.081000
     11 C6          -0.5920     1.5500     0.1380 ca         1 JMB      -0.092000
     12 C5           0.7550     1.5870     0.4500 ca         1 JMB      -0.081000
     13 C9           0.7030    -0.7670     0.9040 ca         1 JMB      -0.080000
     14 C4           1.4140     0.4240     0.8300 ca         1 JMB      -0.190300
     15 C3           2.8810     0.4430     1.1310 c3         1 JMB       0.161900
     16 C2           5.1460     0.1860     0.1050 c3         1 JMB       0.090600
     17 C1           5.8890    -0.1010    -1.1850 c3         1 JMB      -0.103400
     18 H1           7.6970    -0.8060    -0.2120 hc         1 JMB       0.060700
     19 H2           7.9250    -0.2920    -1.8800 hc         1 JMB       0.060700
     20 H3           7.7210     0.9120    -0.6110 hc         1 JMB       0.060700
     21 H4           3.3890    -0.7180    -0.5020 hn         1 JMB       0.501500
     22 H5           3.4310     0.8780    -0.8170 hn         1 JMB       0.501500
     23 H6          -2.6050    -1.0450    -1.7490 ha         1 JMB       0.115500
     24 H7          -4.9890    -0.9370    -2.3420 ha         1 JMB       0.126500
     25 H8          -6.5170     0.5510    -1.0870 ha         1 JMB       0.128000
     26 H9          -5.6350     1.9410     0.7620 ha         1 JMB       0.126500
     27 H10         -3.2470     1.8330     1.3570 ha         1 JMB       0.115500
     28 H11         -1.0940     2.4600    -0.1670 ha         1 JMB       0.146000
     29 H12          1.2930     2.5260     0.3990 ha         1 JMB       0.122000
     30 H13          1.1960    -1.6780     1.2210 ha         1 JMB       0.132000
     31 H14          3.1610    -0.3250     1.8500 hx         1 JMB       0.102200
     32 H15          3.2000     1.4120     1.5110 hx         1 JMB       0.102200
     33 H16          5.4020     1.1660     0.5060 hx         1 JMB       0.099700
     34 H17          5.3550    -0.5660     0.8640 hx         1 JMB       0.099700
     35 H18          5.6140     0.6390    -1.9410 hc         1 JMB       0.062700
     36 H19          5.5940    -1.0790    -1.5710 hc         1 JMB       0.062700
     37 CL          -1.4910    -2.2910     0.7520 cl         1 JMB      -0.145000
@<TRIPOS>BOND
     1     1    17 1   
     2     1    18 1   
     3     1    19 1   
     4     1    20 1   
     5     2    15 1   
     6     2    16 1   
     7     2    21 1   
     8     2    22 1   
     9     3     4 ar  
    10     3    13 ar  
    11     3    37 1   
    12     4     5 1   
    13     4    11 ar  
    14     5     6 ar  
    15     5    10 ar  
    16     6     7 ar  
    17     6    23 1   
    18     7     8 ar  
    19     7    24 1   
    20     8     9 ar  
    21     8    25 1   
    22     9    10 ar  
    23     9    26 1   
    24    10    27 1   
    25    11    12 ar  
    26    11    28 1   
    27    12    14 ar  
    28    12    29 1   
    29    13    14 ar  
    30    13    30 1   
    31    14    15 1   
    32    15    31 1   
    33    15    32 1   
    34    16    17 1   
    35    16    33 1   
    36    16    34 1   
    37    17    35 1   
    38    17    36 1   
@<TRIPOS>SUBSTRUCTURE
     1 JMB         1 TEMP              0 ****  ****    0 ROOT
