@<TRIPOS>MOLECULE
JMB
   37    38     1     0     0
SMALL
No Charge or Current Charge


@<TRIPOS>ATOM
      1 C            7.4140    -0.0830    -1.1230 c3         1 JMB      -0.092100
      2 N            3.6940     0.2000     0.0190 ny         1 JMB      -0.825000
      3 C8          -0.6550    -0.8190     0.6040 ca         1 JMB       0.121000
      4 C7          -1.3240     0.3740     0.2120 cp         1 JMB       0.047000
      5 C10         -2.7700     0.3980    -0.1690 cp         1 JMB      -0.086000
      6 C15         -3.2830    -0.4540    -1.1790 ca         1 JMB      -0.081000
      7 C14         -4.6410    -0.4120    -1.5400 ca         1 JMB      -0.105000
      8 C13         -5.5100     0.4890    -0.9030 ca         1 JMB      -0.080000
      9 C12         -5.0190     1.3500     0.0920 ca         1 JMB      -0.105000
     10 C11         -3.6610     1.3070     0.4520 ca         1 JMB      -0.081000
     11 C6          -0.5800     1.5790     0.1970 ca         1 JMB      -0.092000
     12 C5           0.7810     1.6010     0.5420 ca         1 JMB      -0.081000
     13 C9           0.7080    -0.7930     0.9500 ca         1 JMB      -0.080000
     14 C4           1.4310     0.4130     0.9180 ca         1 JMB      -0.190300
     15 C3           2.8980     0.4320     1.2850 c3         1 JMB       0.161900
     16 C2           5.2100     0.1840     0.1520 c3         1 JMB       0.090600
     17 C1           5.8750    -0.0590    -1.2110 c3         1 JMB      -0.103400
     18 H1           7.7530    -0.8820    -0.4520 hc         1 JMB       0.060700
     19 H2           7.8530    -0.2590    -2.1120 hc         1 JMB       0.060700
     20 H3           7.7970     0.8720    -0.7430 hc         1 JMB       0.060700
     21 H4           3.3690    -0.6870    -0.4190 hn         1 JMB       0.501500
     22 H5           3.4100     0.9140    -0.6840 hn         1 JMB       0.501500
     23 H6          -2.6190    -1.1460    -1.6920 ha         1 JMB       0.115500
     24 H7          -5.0170    -1.0740    -2.3170 ha         1 JMB       0.126500
     25 H8          -6.5610     0.5220    -1.1830 ha         1 JMB       0.128000
     26 H9          -5.6900     2.0510     0.5850 ha         1 JMB       0.126500
     27 H10         -3.2950     1.9780     1.2260 ha         1 JMB       0.115500
     28 H11         -1.0680     2.5050    -0.0980 ha         1 JMB       0.146000
     29 H12          1.3270     2.5420     0.5160 ha         1 JMB       0.122000
     30 H13          1.1990    -1.7150     1.2520 ha         1 JMB       0.132000
     31 H14          3.1330    -0.3540     2.0090 hx         1 JMB       0.102200
     32 H15          3.1820     1.3950     1.7200 hx         1 JMB       0.102200
     33 H16          5.5450     1.1440     0.5590 hx         1 JMB       0.099700
     34 H17          5.5000    -0.6080     0.8500 hx         1 JMB       0.099700
     35 H18          5.5690     0.7280    -1.9120 hc         1 JMB       0.062700
     36 H19          5.5250    -1.0140    -1.6230 hc         1 JMB       0.062700
     37 Cl          -1.4980    -2.3650     0.7230 cl         1 JMB      -0.145000
@<TRIPOS>BOND
     1     1    17 1   
     2     1    18 1   
     3     1    19 1   
     4     1    20 1   
     5     2    15 1   
     6     2    16 1   
     7     2    21 1   
     8     2    22 1   
     9     3     4 ar  
    10     3    13 ar  
    11     3    37 1   
    12     4     5 1   
    13     4    11 ar  
    14     5     6 ar  
    15     5    10 ar  
    16     6     7 ar  
    17     6    23 1   
    18     7     8 ar  
    19     7    24 1   
    20     8     9 ar  
    21     8    25 1   
    22     9    10 ar  
    23     9    26 1   
    24    10    27 1   
    25    11    12 ar  
    26    11    28 1   
    27    12    14 ar  
    28    12    29 1   
    29    13    14 ar  
    30    13    30 1   
    31    14    15 1   
    32    15    31 1   
    33    15    32 1   
    34    16    17 1   
    35    16    33 1   
    36    16    34 1   
    37    17    35 1   
    38    17    36 1   
@<TRIPOS>SUBSTRUCTURE
     1 JMB         1 TEMP              0 ****  ****    0 ROOT
