@<TRIPOS>MOLECULE
JMD
   20    20     1     0     0
SMALL
No Charge or Current Charge


@<TRIPOS>ATOM
      1 C10          3.4210    -0.0100     0.1940 cg         1 JMD       0.323000
      2 O01         -4.4910    -0.0140     0.3980 oh         1 JMD      -0.662000
      3 C02         -3.0820    -0.0130     0.6600 c3         1 JMD       0.165600
      4 C03         -2.3010    -0.0150    -0.6680 c3         1 JMD      -0.042100
      5 C04         -0.7940    -0.0140    -0.4450 ca         1 JMD      -0.058300
      6 C05         -0.0930     1.2020    -0.3390 ca         1 JMD      -0.112500
      7 C06          1.2980     1.2050    -0.1280 ca         1 JMD      -0.070000
      8 C07          1.9990    -0.0110    -0.0210 ca         1 JMD      -0.020000
      9 C08          1.3000    -1.2290    -0.1250 ca         1 JMD      -0.070000
     10 C09         -0.0910    -1.2290    -0.3360 ca         1 JMD      -0.112500
     11 N11          4.5740    -0.0080     0.3790 n1         1 JMD      -0.452000
     12 H011        -4.9430    -0.0120     1.2720 ho         1 JMD       0.446000
     13 H021        -2.8040     0.8770     1.2410 h1         1 JMD       0.021200
     14 H022        -2.8030    -0.8990     1.2450 h1         1 JMD       0.021200
     15 H032        -2.5950    -0.8940    -1.2550 hc         1 JMD       0.064700
     16 H031        -2.5960     0.8600    -1.2590 hc         1 JMD       0.064700
     17 H051        -0.6240     2.1480    -0.4180 ha         1 JMD       0.120500
     18 H061         1.8270     2.1530    -0.0480 ha         1 JMD       0.126500
     19 H081         1.8310    -2.1760    -0.0430 ha         1 JMD       0.126500
     20 H091        -0.6210    -2.1760    -0.4130 ha         1 JMD       0.120500
@<TRIPOS>BOND
     1     1     8 1   
     2     1    11 3   
     3     2     3 1   
     4     2    12 1   
     5     3     4 1   
     6     3    13 1   
     7     3    14 1   
     8     4     5 1   
     9     4    15 1   
    10     4    16 1   
    11     5     6 ar  
    12     5    10 ar  
    13     6     7 ar  
    14     6    17 1   
    15     7     8 ar  
    16     7    18 1   
    17     8     9 ar  
    18     9    10 ar  
    19     9    19 1   
    20    10    20 1   
@<TRIPOS>SUBSTRUCTURE
     1 JMD         1 TEMP              0 ****  ****    0 ROOT
