@<TRIPOS>MOLECULE
JMD
   20    20     1     0     0
SMALL
abcg2


@<TRIPOS>ATOM
      1 C10          3.3550     0.0220     0.2150 cg         1 JMD       0.323000
      2 O01         -4.4110     0.0330     0.4040 oh         1 JMD      -0.662000
      3 C02         -3.0260     0.0620     0.6600 c3         1 JMD       0.165600
      4 C03         -2.2910    -0.1050    -0.6640 c3         1 JMD      -0.042100
      5 C04         -0.8040    -0.0760    -0.4590 ca         1 JMD      -0.058300
      6 C05         -0.1440     1.1380    -0.2660 ca         1 JMD      -0.112500
      7 C06          1.2200     1.1800    -0.0420 ca         1 JMD      -0.070000
      8 C07          1.9460    -0.0110    -0.0110 ca         1 JMD      -0.020000
      9 C08          1.3030    -1.2330    -0.2030 ca         1 JMD      -0.070000
     10 C09         -0.0630    -1.2550    -0.4240 ca         1 JMD      -0.112500
     11 N11          4.4930     0.0490     0.3970 n1         1 JMD      -0.452000
     12 H011        -4.8730     0.1920     1.2320 ho         1 JMD       0.446000
     13 H021        -2.7210     1.0080     1.1260 h1         1 JMD       0.021200
     14 H022        -2.7230    -0.7420     1.3450 h1         1 JMD       0.021200
     15 H032        -2.5860    -1.0490    -1.1260 hc         1 JMD       0.064700
     16 H031        -2.5870     0.6990    -1.3420 hc         1 JMD       0.064700
     17 H051        -0.7050     2.0640    -0.2970 ha         1 JMD       0.120500
     18 H061         1.7210     2.1270     0.1060 ha         1 JMD       0.126500
     19 H081         1.8690    -2.1540    -0.1820 ha         1 JMD       0.126500
     20 H091        -0.5590    -2.2050    -0.5780 ha         1 JMD       0.120500
@<TRIPOS>BOND
     1     1     8 1   
     2     1    11 3   
     3     2     3 1   
     4     2    12 1   
     5     3     4 1   
     6     3    13 1   
     7     3    14 1   
     8     4     5 1   
     9     4    15 1   
    10     4    16 1   
    11     5     6 ar  
    12     5    10 ar  
    13     6     7 ar  
    14     6    17 1   
    15     7     8 ar  
    16     7    18 1   
    17     8     9 ar  
    18     9    10 ar  
    19     9    19 1   
    20    10    20 1   
@<TRIPOS>SUBSTRUCTURE
     1 JMD         1 TEMP              0 ****  ****    0 ROOT
