@<TRIPOS>MOLECULE
JME
   51    55     1     0     0
SMALL
No Charge or Current Charge


@<TRIPOS>ATOM
      1 C5          92.3700    -9.1410    14.2030 c          1 JME       0.635700
      2 C7          95.0880    -9.1110    11.5770 cc         1 JME      -0.069000
      3 C8          93.1220   -10.5860    11.6210 cd         1 JME      -0.114000
      4 C10         93.8070    -9.5080    12.1640 cc         1 JME       0.106600
      5 N12         91.2030    -8.3390    16.3590 na         1 JME       0.181800
      6 C15         91.6280    -6.2850    16.4860 cc         1 JME       0.262900
      7 C24         93.8130    -2.7380    14.1720 cy         1 JME      -0.117400
      8 C26         92.5280    -3.5730    13.8690 cy         1 JME       0.100000
      9 C28         95.3110   -13.9570     7.1110 ca         1 JME      -0.086000
     10 C1          92.2290    -6.7070    15.2860 cc         1 JME      -0.250600
     11 C2          91.9730    -8.0800    15.2020 cd         1 JME      -0.155600
     12 C3          93.7390   -11.2510    10.5260 cd         1 JME      -0.043000
     13 N4          94.9470   -10.8680    10.0260 na         1 JME       0.117100
     14 N6          93.2800   -12.2790     9.8350 nc         1 JME      -0.289600
     15 C9          92.9290    -5.7500    14.3730 c          1 JME       0.666700
     16 C11         94.2520   -12.5160     8.8840 cc         1 JME       0.139400
     17 N13         91.0080    -7.2250    17.1540 nd         1 JME      -0.512800
     18 C14         95.6700    -9.7800    10.5000 cd         1 JME      -0.046000
     19 C16         95.3170   -11.6420     8.9580 cd         1 JME      -0.271100
     20 N17         93.2700    -8.7750    13.2280 ns         1 JME      -0.415100
     21 N18         92.9720    -4.4610    14.9960 nj         1 JME      -0.399800
     22 N20         96.4100    -7.1320    12.6060 n1         1 JME      -0.431000
     23 O21         91.9590   -10.2890    14.2880 o          1 JME      -0.587100
     24 O22         93.3450    -6.1350    13.2880 o          1 JME      -0.639100
     25 C23         94.1740   -13.5680     7.8570 ca         1 JME      -0.024800
     26 C25         94.4010    -4.0610    14.7570 cy         1 JME       0.100000
     27 C27         90.6400    -9.6290    16.7920 c3         1 JME       0.069900
     28 C29         92.9560   -14.2490     7.6330 ca         1 JME      -0.086000
     29 C30         92.8690   -15.2720     6.6730 ca         1 JME      -0.117500
     30 C31         95.2220   -14.9810     6.1510 ca         1 JME      -0.117500
     31 C32         94.0020   -15.6370     5.9290 ca         1 JME      -0.103000
     32 H1          92.1490   -10.9090    11.9710 ha         1 JME       0.167000
     33 H2          91.6050    -5.2870    16.9040 h4         1 JME       0.045100
     34 H3          93.6690    -1.9440    14.9130 hc         1 JME       0.065700
     35 H4          94.3340    -2.3260    13.3010 hc         1 JME       0.065700
     36 H5          92.5030    -3.9950    12.8570 h1         1 JME       0.062700
     37 H6          91.5930    -3.0430    14.0800 h1         1 JME       0.062700
     38 H7          96.2720   -13.4780     7.2710 ha         1 JME       0.121000
     39 H8          96.6140    -9.5380    10.0260 h4         1 JME       0.156000
     40 H9          96.2250   -11.5130     8.3800 h4         1 JME       0.234000
     41 H10         93.5910    -7.8180    13.3350 hn         1 JME       0.392500
     42 H11         94.9710    -3.9240    15.6830 h1         1 JME       0.062700
     43 H12         94.9870    -4.6440    14.0350 h1         1 JME       0.062700
     44 H13         90.1040    -9.5070    17.7410 h1         1 JME       0.072367
     45 H14         89.9410    -9.9980    16.0330 h1         1 JME       0.072367
     46 H15         91.4490   -10.3550    16.9300 h1         1 JME       0.072367
     47 H16         92.0670   -13.9830     8.1990 ha         1 JME       0.121000
     48 H17         91.9230   -15.7830     6.5070 ha         1 JME       0.112500
     49 H18         96.1040   -15.2690     5.5820 ha         1 JME       0.112500
     50 H19         93.9350   -16.4300     5.1860 ha         1 JME       0.112000
     51 C19         95.7980    -8.0110    12.1420 cg         1 JME       0.325000
@<TRIPOS>BOND
     1     1    11 1   
     2     1    20 1   
     3     1    23 2   
     4     2     4 1   
     5     2    18 2   
     6     2    51 1   
     7     3     4 2   
     8     3    12 1   
     9     3    32 1   
    10     4    20 1   
    11     5    11 1   
    12     5    17 1   
    13     5    27 1   
    14     6    10 1   
    15     6    17 2   
    16     6    33 1   
    17     7     8 1   
    18     7    26 1   
    19     7    34 1   
    20     7    35 1   
    21     8    21 1   
    22     8    36 1   
    23     8    37 1   
    24     9    25 ar  
    25     9    30 ar  
    26     9    38 1   
    27    10    11 2   
    28    10    15 1   
    29    12    13 1   
    30    12    14 2   
    31    13    18 1   
    32    13    19 1   
    33    14    16 1   
    34    15    21 1   
    35    15    24 2   
    36    16    19 2   
    37    16    25 1   
    38    18    39 1   
    39    19    40 1   
    40    20    41 1   
    41    21    26 1   
    42    22    51 3   
    43    25    28 ar  
    44    26    42 1   
    45    26    43 1   
    46    27    44 1   
    47    27    45 1   
    48    27    46 1   
    49    28    29 ar  
    50    28    47 1   
    51    29    31 ar  
    52    29    48 1   
    53    30    31 ar  
    54    30    49 1   
    55    31    50 1   
@<TRIPOS>SUBSTRUCTURE
     1 JME         1 TEMP              0 ****  ****    0 ROOT
