@<TRIPOS>MOLECULE
JME
   51    55     1     0     0
SMALL
bcc


@<TRIPOS>ATOM
      1 C5          92.5070    -9.1210    14.2170 c          1 JME       0.702700
      2 C7          95.5780    -9.8880    12.4150 cc         1 JME      -0.069000
      3 C8          93.3620   -10.4630    11.6620 cd         1 JME      -0.132000
      4 C10         94.1500    -9.7780    12.5410 cc         1 JME       0.106600
      5 N12         91.3320    -8.2560    16.2060 na         1 JME       0.160400
      6 C15         91.8260    -6.2100    16.3700 cc         1 JME       0.328200
      7 C24         92.6540    -2.7640    13.4620 cy         1 JME      -0.117400
      8 C26         92.0400    -3.7680    14.4550 cy         1 JME       0.100000
      9 C28         95.2310   -13.7200     6.9650 ca         1 JME      -0.104000
     10 C1          92.5340    -6.6850    15.2570 cc         1 JME      -0.315900
     11 C2          92.1850    -8.0360    15.1840 cd         1 JME      -0.104900
     12 C3          93.9570   -11.2350    10.6460 cd         1 JME       0.007700
     13 N4          95.3440   -11.2800    10.5510 na         1 JME       0.015700
     14 N6          93.4050   -11.9470     9.6940 nc         1 JME      -0.289600
     15 C9          93.4650    -5.9150    14.4120 c          1 JME       0.733700
     16 C11         94.4340   -12.4640     8.9630 cc         1 JME       0.139400
     17 N13         91.1220    -7.1690    16.9310 nd         1 JME      -0.512800
     18 C14         96.1430   -10.6280    11.4170 cd         1 JME      -0.013300
     19 C16         95.6470   -12.0700     9.4730 cd         1 JME      -0.221100
     20 N17         93.6710    -8.9470    13.5470 ns         1 JME      -0.482100
     21 N18         93.2100    -4.6230    14.2500 nj         1 JME      -0.466800
     22 N20         97.1470    -8.7470    14.1070 n1         1 JME      -0.341800
     23 O21         91.7720   -10.0800    14.0790 o          1 JME      -0.587100
     24 O22         94.4590    -6.4330    13.8850 o          1 JME      -0.639100
     25 C23         94.1870   -13.3160     7.8000 ca         1 JME      -0.024800
     26 C25         93.8800    -3.6910    13.3510 cy         1 JME       0.100000
     27 C27         90.6500    -9.4760    16.6030 c3         1 JME       0.040600
     28 C29         92.8900   -13.7370     7.5040 ca         1 JME      -0.104000
     29 C30         92.6440   -14.5430     6.4020 ca         1 JME      -0.135500
     30 C31         94.9830   -14.5240     5.8640 ca         1 JME      -0.135500
     31 C32         93.6880   -14.9400     5.5770 ca         1 JME      -0.121000
     32 H1          92.2850   -10.4150    11.6920 ha         1 JME       0.185000
     33 H2          91.8310    -5.2210    16.8000 h4         1 JME       0.045100
     34 H3          92.8560    -1.7780    13.8730 hc         1 JME       0.065700
     35 H4          92.0940    -2.6600    12.5360 hc         1 JME       0.065700
     36 H5          91.0990    -4.2320    14.1550 h1         1 JME       0.062700
     37 H6          91.9460    -3.3940    15.4750 h1         1 JME       0.062700
     38 H7          96.2460   -13.4010     7.1650 ha         1 JME       0.139000
     39 H8          97.2110   -10.7300    11.2870 h4         1 JME       0.174000
     40 H9          96.6650   -12.2730     9.1880 h4         1 JME       0.184000
     41 H10         94.1840    -8.0670    13.7320 hn         1 JME       0.392500
     42 H11         94.8100    -3.2910    13.7580 h1         1 JME       0.062700
     43 H12         94.0750    -4.1060    12.3610 h1         1 JME       0.062700
     44 H13         90.2290    -9.2920    17.5860 h1         1 JME       0.072367
     45 H14         89.8510    -9.7190    15.9070 h1         1 JME       0.072367
     46 H15         91.3440   -10.3080    16.6600 h1         1 JME       0.072367
     47 H16         92.0710   -13.4320     8.1410 ha         1 JME       0.139000
     48 H17         91.6320   -14.8620     6.1880 ha         1 JME       0.130500
     49 H18         95.8030   -14.8250     5.2260 ha         1 JME       0.130500
     50 H19         93.4960   -15.5670     4.7170 ha         1 JME       0.130000
     51 C19         96.4420    -9.2520    13.3480 cg         1 JME       0.235800
@<TRIPOS>BOND
     1     1    11 1   
     2     1    20 1   
     3     1    23 2   
     4     2     4 1   
     5     2    18 2   
     6     2    51 1   
     7     3     4 2   
     8     3    12 1   
     9     3    32 1   
    10     4    20 1   
    11     5    11 1   
    12     5    17 1   
    13     5    27 1   
    14     6    10 1   
    15     6    17 2   
    16     6    33 1   
    17     7     8 1   
    18     7    26 1   
    19     7    34 1   
    20     7    35 1   
    21     8    21 1   
    22     8    36 1   
    23     8    37 1   
    24     9    25 ar  
    25     9    30 ar  
    26     9    38 1   
    27    10    11 2   
    28    10    15 1   
    29    12    13 1   
    30    12    14 2   
    31    13    18 1   
    32    13    19 1   
    33    14    16 1   
    34    15    21 1   
    35    15    24 2   
    36    16    19 2   
    37    16    25 1   
    38    18    39 1   
    39    19    40 1   
    40    20    41 1   
    41    21    26 1   
    42    22    51 3   
    43    25    28 ar  
    44    26    42 1   
    45    26    43 1   
    46    27    44 1   
    47    27    45 1   
    48    27    46 1   
    49    28    29 ar  
    50    28    47 1   
    51    29    31 ar  
    52    29    48 1   
    53    30    31 ar  
    54    30    49 1   
    55    31    50 1   
@<TRIPOS>SUBSTRUCTURE
     1 JME         1 TEMP              0 ****  ****    0 ROOT
