@<TRIPOS>MOLECULE
JMF
   53    55     1     0     0
SMALL
abcg2


@<TRIPOS>ATOM
      1 C13        -37.9620    -6.5840     9.5220 c3         1 JMF       0.009700
      2 C15        -32.0860   -14.1070     8.3460 cc         1 JMF      -0.220000
      3 C20        -30.3830   -16.6500     8.2790 c          1 JMF       0.611100
      4 C21        -29.6700   -17.9480     7.9780 c5         1 JMF      -0.163700
      5 C24        -27.6750   -19.2630     8.2130 c5         1 JMF       0.232800
      6 C26        -29.9390   -19.0280     9.0280 c5         1 JMF       0.245800
      7 C28        -38.6670    -4.6710     7.8150 c1         1 JMF      -0.240000
      8 C01        -34.2710    -9.6910     9.7640 ca         1 JMF      -0.152600
      9 C02        -32.9520   -10.1220     9.8770 ca         1 JMF      -0.057000
     10 C03        -32.5280   -11.2800     9.2500 ca         1 JMF      -0.127500
     11 C04        -33.4250   -12.0200     8.4860 ca         1 JMF       0.025800
     12 C05        -34.7410   -11.5950     8.3540 ca         1 JMF      -0.127500
     13 C06        -35.1550   -10.4330     8.9850 ca         1 JMF      -0.057000
     14 C08        -34.6690    -8.4240    10.4520 c          1 JMF       0.612700
     15 C11        -36.5050    -7.1880    11.5100 c3         1 JMF       0.107000
     16 C12        -36.9090    -6.1000    10.5210 c3         1 JMF      -0.097400
     17 C14        -38.3610    -5.5430     8.5850 c1         1 JMF      -0.149100
     18 C16        -31.9830   -15.0580     7.3700 cd         1 JMF       0.359900
     19 C18        -33.3760   -13.6380     6.6260 cc         1 JMF       0.424400
     20 C23        -28.1440   -17.8220     8.0310 c5         1 JMF      -0.086400
     21 N07        -32.9970   -13.1980     7.8480 na         1 JMF      -0.075300
     22 N09        -35.9410    -8.3620    10.8790 ns         1 JMF      -0.507900
     23 N17        -32.7810   -14.7550     6.3090 nd         1 JMF      -0.706000
     24 N25        -28.7940   -19.9040     8.8770 nh         1 JMF      -0.790600
     25 N29        -27.7630   -21.9510     9.0690 n2         1 JMF      -0.863100
     26 O10        -33.8640    -7.5180    10.6200 o          1 JMF      -0.593100
     27 O22        -30.2040   -16.0330     9.3160 o          1 JMF      -0.591100
     28 H1         -38.8450    -6.9430    10.0590 hc         1 JMF       0.051200
     29 H2         -37.5770    -7.4380     8.9570 hc         1 JMF       0.051200
     30 H3         -31.6490   -14.0060     9.3210 h4         1 JMF       0.188000
     31 H4         -29.9630   -18.3310     6.9970 hc         1 JMF       0.065700
     32 H5         -27.4690   -19.7500     7.2550 h1         1 JMF       0.056200
     33 H6         -26.7630   -19.3260     8.8110 h1         1 JMF       0.056200
     34 H7         -29.9830   -18.5860    10.0290 h1         1 JMF       0.054200
     35 H8         -30.8750   -19.5590     8.8500 h1         1 JMF       0.054200
     36 H9         -38.9440    -3.9010     7.1330 ha         1 JMF       0.255000
     37 H10        -32.2450    -9.5490    10.4610 ha         1 JMF       0.130500
     38 H11        -31.4970   -11.5930     9.3420 ha         1 JMF       0.132000
     39 H12        -35.4500   -12.1700     7.7730 ha         1 JMF       0.132000
     40 H13        -36.1810   -10.1140     8.8460 ha         1 JMF       0.130500
     41 H14        -35.7930    -6.7810    12.2290 h1         1 JMF       0.053700
     42 H15        -37.3770    -7.5160    12.0760 h1         1 JMF       0.053700
     43 H16        -36.0310    -5.7380     9.9840 hc         1 JMF       0.063200
     44 H17        -37.3050    -5.2540    11.0870 hc         1 JMF       0.063200
     45 H18        -34.0660   -13.0930     6.0010 h5         1 JMF       0.062100
     46 H19        -27.7290   -17.3600     7.1370 hc         1 JMF       0.065700
     47 H20        -27.8520   -17.2160     8.8910 hc         1 JMF       0.065700
     48 H22        -36.5290    -9.1730    10.7910 hn         1 JMF       0.315500
     49 H23        -31.3330   -16.7700     6.4760 hn         1 JMF       0.337500
     50 H21        -29.7280   -21.5310     9.6730 h5         1 JMF      -0.032200
     51 H24        -27.9770   -22.8840     9.3970 hn         1 JMF       0.381400
     52 N19        -31.2290   -16.2220     7.3170 ns         1 JMF      -0.456400
     53 C27        -28.7840   -21.2000     9.2350 c2         1 JMF       0.645100
@<TRIPOS>BOND
     1     1    16 1   
     2     1    17 1   
     3     1    28 1   
     4     1    29 1   
     5     2    18 2   
     6     2    21 1   
     7     2    30 1   
     8     3     4 1   
     9     3    27 2   
    10     3    52 1   
    11     4     6 1   
    12     4    20 1   
    13     4    31 1   
    14     5    20 1   
    15     5    24 1   
    16     5    32 1   
    17     5    33 1   
    18     6    24 1   
    19     6    34 1   
    20     6    35 1   
    21     7    17 3   
    22     7    36 1   
    23     8     9 ar  
    24     8    13 ar  
    25     8    14 1   
    26     9    10 ar  
    27     9    37 1   
    28    10    11 ar  
    29    10    38 1   
    30    11    12 ar  
    31    11    21 1   
    32    12    13 ar  
    33    12    39 1   
    34    13    40 1   
    35    14    22 1   
    36    14    26 2   
    37    15    16 1   
    38    15    22 1   
    39    15    41 1   
    40    15    42 1   
    41    16    43 1   
    42    16    44 1   
    43    18    23 1   
    44    18    52 1   
    45    19    21 1   
    46    19    23 2   
    47    19    45 1   
    48    20    46 1   
    49    20    47 1   
    50    22    48 1   
    51    24    53 1   
    52    25    51 1   
    53    25    53 2   
    54    49    52 1   
    55    50    53 1   
@<TRIPOS>SUBSTRUCTURE
     1 JMF         1 TEMP              0 ****  ****    0 ROOT
