@<TRIPOS>MOLECULE
JMF
   53    55     1     0     0
SMALL
No Charge or Current Charge


@<TRIPOS>ATOM
      1 C13        -37.4980    -6.1110     9.0510 c3         1 JMF       0.009700
      2 C15        -32.2820   -14.3060     8.5170 cc         1 JMF      -0.220000
      3 C20        -30.3080   -16.6080     8.4420 c          1 JMF       0.611100
      4 C21        -29.5940   -17.9050     7.9970 c5         1 JMF      -0.163700
      5 C24        -27.5430   -19.1100     7.7470 c5         1 JMF       0.232800
      6 C26        -29.5690   -18.9110     9.1800 c5         1 JMF       0.245800
      7 C28        -37.2460    -3.8790     7.5910 c1         1 JMF      -0.240000
      8 C01        -34.6330    -9.9690    10.0250 ca         1 JMF      -0.152600
      9 C02        -33.2620   -10.3020     9.9550 ca         1 JMF      -0.057000
     10 C03        -32.8380   -11.4850     9.3250 ca         1 JMF      -0.127500
     11 C04        -33.7730   -12.3640     8.7470 ca         1 JMF       0.025800
     12 C05        -35.1420   -12.0380     8.8120 ca         1 JMF      -0.127500
     13 C06        -35.5700   -10.8560     9.4430 ca         1 JMF      -0.057000
     14 C08        -35.0510    -8.6840    10.7130 c          1 JMF       0.612700
     15 C11        -37.0010    -7.2110    11.3430 c3         1 JMF       0.107000
     16 C12        -36.8390    -5.9670    10.4420 c3         1 JMF      -0.097400
     17 C14        -37.3720    -4.8920     8.2410 c1         1 JMF      -0.149100
     18 C16        -32.2590   -15.3280     7.5960 cd         1 JMF       0.359900
     19 C18        -33.9300   -14.0900     7.0020 cc         1 JMF       0.424400
     20 C23        -28.0780   -17.6570     7.7240 c5         1 JMF      -0.086400
     21 N07        -33.3490   -13.5400     8.1190 na         1 JMF      -0.075300
     22 N09        -36.4040    -8.4190    10.7630 ns         1 JMF      -0.507900
     23 N17        -33.2680   -15.1940     6.6680 nd         1 JMF      -0.706000
     24 N25        -28.3060   -19.6390     8.9050 nh         1 JMF      -0.790600
     25 N29        -27.2990   -21.7080     8.7920 n2         1 JMF      -0.863100
     26 O10        -34.2350    -7.9150    11.2030 o          1 JMF      -0.593100
     27 O22        -30.0020   -15.9020     9.3920 o          1 JMF      -0.591100
     28 H1         -38.5630    -6.3490     9.1700 hc         1 JMF       0.051200
     29 H2         -37.0410    -6.9450     8.5040 hc         1 JMF       0.051200
     30 H3         -31.6670   -14.0870     9.3770 h4         1 JMF       0.188000
     31 H4         -30.0790   -18.3510     7.1200 hc         1 JMF       0.065700
     32 H5         -27.7970   -19.6420     6.8180 h1         1 JMF       0.056200
     33 H6         -26.4550   -19.1540     7.8920 h1         1 JMF       0.056200
     34 H7         -29.5250   -18.4180    10.1620 h1         1 JMF       0.054200
     35 H8         -30.4550   -19.5620     9.1600 h1         1 JMF       0.054200
     36 H9         -37.1280    -2.9760     7.0250 ha         1 JMF       0.255000
     37 H10        -32.5140    -9.6420    10.3900 ha         1 JMF       0.130500
     38 H11        -31.7740   -11.7060     9.2800 ha         1 JMF       0.132000
     39 H12        -35.8880   -12.7040     8.3840 ha         1 JMF       0.132000
     40 H13        -36.6370   -10.6490     9.4680 ha         1 JMF       0.130500
     41 H14        -36.5350    -7.0180    12.3190 h1         1 JMF       0.053700
     42 H15        -38.0690    -7.3980    11.5150 h1         1 JMF       0.053700
     43 H16        -35.7710    -5.7450    10.3200 hc         1 JMF       0.063200
     44 H17        -37.2790    -5.1070    10.9620 hc         1 JMF       0.063200
     45 H18        -34.7840   -13.6570     6.4950 h5         1 JMF       0.062100
     46 H19        -27.8890   -17.1570     6.7670 hc         1 JMF       0.065700
     47 H20        -27.6090   -17.0550     8.5110 hc         1 JMF       0.065700
     48 H22        -37.0200    -9.1060    10.3510 hn         1 JMF       0.315500
     49 H23        -31.4640   -17.0390     6.8500 hn         1 JMF       0.337500
     50 H21        -29.1730   -21.3990     9.6620 h5         1 JMF      -0.032200
     51 H24        -27.4870   -22.6780     9.0800 hn         1 JMF       0.381400
     52 N19        -31.3590   -16.3570     7.5870 ns         1 JMF      -0.456400
     53 C27        -28.3070   -21.0000     9.1310 c2         1 JMF       0.645100
@<TRIPOS>BOND
     1     1    16 1   
     2     1    17 1   
     3     1    28 1   
     4     1    29 1   
     5     2    18 2   
     6     2    21 1   
     7     2    30 1   
     8     3     4 1   
     9     3    27 2   
    10     3    52 1   
    11     4     6 1   
    12     4    20 1   
    13     4    31 1   
    14     5    20 1   
    15     5    24 1   
    16     5    32 1   
    17     5    33 1   
    18     6    24 1   
    19     6    34 1   
    20     6    35 1   
    21     7    17 3   
    22     7    36 1   
    23     8     9 ar  
    24     8    13 ar  
    25     8    14 1   
    26     9    10 ar  
    27     9    37 1   
    28    10    11 ar  
    29    10    38 1   
    30    11    12 ar  
    31    11    21 1   
    32    12    13 ar  
    33    12    39 1   
    34    13    40 1   
    35    14    22 1   
    36    14    26 2   
    37    15    16 1   
    38    15    22 1   
    39    15    41 1   
    40    15    42 1   
    41    16    43 1   
    42    16    44 1   
    43    18    23 1   
    44    18    52 1   
    45    19    21 1   
    46    19    23 2   
    47    19    45 1   
    48    20    46 1   
    49    20    47 1   
    50    22    48 1   
    51    24    53 1   
    52    25    51 1   
    53    25    53 2   
    54    49    52 1   
    55    50    53 1   
@<TRIPOS>SUBSTRUCTURE
     1 JMF         1 TEMP              0 ****  ****    0 ROOT
