@<TRIPOS>MOLECULE
JMG
   21    22     1     0     0
SMALL
bcc


@<TRIPOS>ATOM
      1 C10         -2.3150    -1.1090    -0.1750 ca         1 JMG      -0.136500
      2 C13         -4.0960     0.9630     0.2820 ca         1 JMG      -0.131000
      3 O01          3.5860    -1.4220     0.5420 o          1 JMG      -0.813300
      4 O03          4.4200     0.6110     0.1020 o          1 JMG      -0.813300
      5 C04          2.0990     0.3120     0.1060 cc         1 JMG      -0.057700
      6 C05          1.6530     1.5630    -0.2090 cd         1 JMG      -0.188000
      7 C06          0.2410     1.6500    -0.2670 cd         1 JMG      -0.135000
      8 C07         -0.3830     0.4600     0.0060 cc         1 JMG      -0.114100
      9 S08          0.7840    -0.7680     0.3410 ss         1 JMG      -0.062800
     10 C09         -1.8180     0.1810     0.0340 ca         1 JMG       0.047000
     11 C11         -3.6780    -1.3580    -0.1500 ca         1 JMG      -0.131000
     12 C12         -4.5760    -0.3240     0.0760 ca         1 JMG      -0.159000
     13 C14         -2.7320     1.2130     0.2680 ca         1 JMG      -0.136500
     14 H101        -1.6340    -1.9280    -0.3750 ha         1 JMG       0.134000
     15 H131        -4.7850     1.7770     0.4660 ha         1 JMG       0.115500
     16 H051         2.3180     2.3930    -0.4010 ha         1 JMG       0.155000
     17 H061        -0.2930     2.5550    -0.5240 ha         1 JMG       0.121000
     18 H111        -4.0390    -2.3650    -0.3160 ha         1 JMG       0.115500
     19 H121        -5.6410    -0.5180     0.0930 ha         1 JMG       0.114000
     20 H141        -2.3750     2.2180     0.4570 ha         1 JMG       0.134000
     21 C02          3.5000    -0.2100     0.2640 c          1 JMG       0.942200
@<TRIPOS>BOND
     1     1    10 ar  
     2     1    11 ar  
     3     1    14 1   
     4     2    12 ar  
     5     2    13 ar  
     6     2    15 1   
     7     3    21 1   
     8     4    21 1   
     9     5     6 2   
    10     5     9 1   
    11     5    21 1   
    12     6     7 1   
    13     6    16 1   
    14     7     8 2   
    15     7    17 1   
    16     8     9 1   
    17     8    10 1   
    18    10    13 ar  
    19    11    12 ar  
    20    11    18 1   
    21    12    19 1   
    22    13    20 1   
@<TRIPOS>SUBSTRUCTURE
     1 JMG         1 TEMP              0 ****  ****    0 ROOT
