@<TRIPOS>MOLECULE
JMG
   21    22     1     0     0
SMALL
No Charge or Current Charge


@<TRIPOS>ATOM
      1 C10         -2.3610    -1.1330    -0.2070 ca         1 JMG      -0.118500
      2 C13         -4.0930     1.0120     0.3180 ca         1 JMG      -0.113000
      3 O01          3.8630    -1.2280     0.6210 o          1 JMG      -0.708000
      4 O03          4.4050     0.7690     0.0580 o          1 JMG      -0.708000
      5 C04          2.1310     0.2550     0.1380 cc         1 JMG      -0.202600
      6 C05          1.6350     1.4870    -0.2380 cd         1 JMG      -0.170000
      7 C06          0.2150     1.5330    -0.2900 cd         1 JMG      -0.117000
      8 C07         -0.3660     0.3360     0.0550 cc         1 JMG      -0.259000
      9 S08          0.8350    -0.9000     0.4300 ss         1 JMG       0.227000
     10 C09         -1.8200     0.1440     0.0510 ca         1 JMG       0.047000
     11 C11         -3.7520    -1.3350    -0.2080 ca         1 JMG      -0.113000
     12 C12         -4.6190    -0.2620     0.0530 ca         1 JMG      -0.141000
     13 C14         -2.7010     1.2140     0.3190 ca         1 JMG      -0.118500
     14 H101        -1.7040    -1.9730    -0.4170 ha         1 JMG       0.116000
     15 H131        -4.7620     1.8430     0.5270 ha         1 JMG       0.097500
     16 H051         2.2660     2.3390    -0.4740 ha         1 JMG       0.137000
     17 H061        -0.3360     2.4210    -0.5820 ha         1 JMG       0.103000
     18 H111        -4.1570    -2.3240    -0.4130 ha         1 JMG       0.097500
     19 H121        -5.6950    -0.4190     0.0530 ha         1 JMG       0.096000
     20 H141        -2.3140     2.2040     0.5420 ha         1 JMG       0.116000
     21 C02          3.5660    -0.0920     0.2820 c          1 JMG       0.731600
@<TRIPOS>BOND
     1     1    10 ar  
     2     1    11 ar  
     3     1    14 1   
     4     2    12 ar  
     5     2    13 ar  
     6     2    15 1   
     7     3    21 1   
     8     4    21 1   
     9     5     6 2   
    10     5     9 1   
    11     5    21 1   
    12     6     7 1   
    13     6    16 1   
    14     7     8 2   
    15     7    17 1   
    16     8     9 1   
    17     8    10 1   
    18    10    13 ar  
    19    11    12 ar  
    20    11    18 1   
    21    12    19 1   
    22    13    20 1   
@<TRIPOS>SUBSTRUCTURE
     1 JMG         1 TEMP              0 ****  ****    0 ROOT
