@<TRIPOS>MOLECULE
JMI
   47    48     1     0     0
SMALL
No Charge or Current Charge


@<TRIPOS>ATOM
      1 C4         -31.5160    -5.2080   -13.6060 c6         1 JMI       0.148300
      2 C5         -31.3320    -6.6650   -14.1330 c6         1 JMI       0.169300
      3 C6         -30.6250    -6.7050   -15.5290 c3         1 JMI       0.172600
      4 C3         -32.1320    -5.2300   -12.1730 c6         1 JMI       0.092300
      5 C1         -31.1060    -7.5490   -11.8630 c6         1 JMI       0.395300
      6 C2         -31.2810    -6.1260   -11.2230 c6         1 JMI       0.123300
      7 CAA        -30.4090   -12.6470   -17.0930 c3         1 JMI      -0.181100
      8 CAG        -33.9230   -11.4500   -12.8230 ca         1 JMI      -0.084000
      9 CAH        -31.5100   -11.7180   -12.9280 ca         1 JMI      -0.084000
     10 CAI        -33.7550   -10.1060   -12.4460 ca         1 JMI      -0.140500
     11 CAJ        -31.3400   -10.3740   -12.5510 ca         1 JMI      -0.140500
     12 CAK        -33.3890   -13.8540   -14.9790 c3         1 JMI       0.108000
     13 CAQ        -31.2000   -13.5940   -16.2000 c          1 JMI       0.598100
     14 CAR        -32.8010   -12.2620   -13.0680 ca         1 JMI      -0.100300
     15 CAS        -32.4690    -9.5590   -12.3110 ca         1 JMI       0.129100
     16 NAN        -32.4660   -13.1610   -15.8850 ns         1 JMI      -0.502900
     17 O1         -32.3780    -8.2320   -11.9360 os         1 JMI      -0.396100
     18 O2         -30.0200    -5.4610   -10.9770 oh         1 JMI      -0.706000
     19 O3         -32.2210    -3.8840   -11.6520 oh         1 JMI      -0.674000
     20 O4         -32.3510    -4.4140   -14.4690 oh         1 JMI      -0.720000
     21 O5         -30.5360    -7.4390   -13.1930 os         1 JMI      -0.442000
     22 O6         -30.3960    -8.0420   -16.0230 oh         1 JMI      -0.718000
     23 OAB        -30.7450   -14.6550   -15.8010 o          1 JMI      -0.615100
     24 H1         -30.5160    -4.7500   -13.5440 h1         1 JMI       0.062700
     25 H2         -32.3190    -7.1390   -14.2430 h1         1 JMI       0.070700
     26 H3         -29.6710    -6.1670   -15.4400 h1         1 JMI       0.038700
     27 H4         -31.2460    -6.1460   -16.2430 h1         1 JMI       0.038700
     28 H5         -33.1380    -5.6720   -12.2450 h1         1 JMI       0.067700
     29 H6         -30.4250    -8.1250   -11.2190 h2         1 JMI       0.097700
     30 H7         -31.8270    -6.2460   -10.2750 h1         1 JMI       0.055700
     31 H8         -30.9880   -12.4410   -18.0000 hc         1 JMI       0.059700
     32 H9         -30.3660   -11.6610   -16.6150 hc         1 JMI       0.059700
     33 H10        -29.4080   -13.0250   -17.3280 hc         1 JMI       0.059700
     34 H11        -34.9270   -11.8570   -12.9290 ha         1 JMI       0.114500
     35 H12        -30.6350   -12.3350   -13.1180 ha         1 JMI       0.114500
     36 H13        -34.6260    -9.4840   -12.2590 ha         1 JMI       0.121500
     37 H14        -30.3300    -9.9880   -12.4560 ha         1 JMI       0.121500
     38 H15        -34.3920   -13.4310   -15.1200 h1         1 JMI       0.052700
     39 H16        -33.4320   -14.9170   -15.2520 h1         1 JMI       0.052700
     40 H17        -33.7510   -14.1960   -12.8760 hc         1 JMI       0.060200
     41 H18        -32.0610   -14.2820   -13.3230 hc         1 JMI       0.060200
     42 H19        -32.7460   -12.2630   -16.2610 hn         1 JMI       0.321500
     43 H20        -30.2440    -4.4980   -10.9950 ho         1 JMI       0.522000
     44 H21        -32.9110    -3.8850   -10.9480 ho         1 JMI       0.455000
     45 H22        -32.6090    -3.6350   -13.9180 ho         1 JMI       0.521000
     46 H23        -29.8870    -7.9540   -16.8620 ho         1 JMI       0.501000
     47 CAM        -32.9840   -13.7150   -13.4950 c3         1 JMI      -0.056100
@<TRIPOS>BOND
     1     1     2 1   
     2     1     4 1   
     3     1    20 1   
     4     1    24 1   
     5     2     3 1   
     6     2    21 1   
     7     2    25 1   
     8     3    22 1   
     9     3    26 1   
    10     3    27 1   
    11     4     6 1   
    12     4    19 1   
    13     4    28 1   
    14     5     6 1   
    15     5    17 1   
    16     5    21 1   
    17     5    29 1   
    18     6    18 1   
    19     6    30 1   
    20     7    13 1   
    21     7    31 1   
    22     7    32 1   
    23     7    33 1   
    24     8    10 ar  
    25     8    14 ar  
    26     8    34 1   
    27     9    11 ar  
    28     9    14 ar  
    29     9    35 1   
    30    10    15 ar  
    31    10    36 1   
    32    11    15 ar  
    33    11    37 1   
    34    12    16 1   
    35    12    38 1   
    36    12    39 1   
    37    12    47 1   
    38    13    16 1   
    39    13    23 2   
    40    14    47 1   
    41    15    17 1   
    42    16    42 1   
    43    18    43 1   
    44    19    44 1   
    45    20    45 1   
    46    22    46 1   
    47    40    47 1   
    48    41    47 1   
@<TRIPOS>SUBSTRUCTURE
     1 JMI         1 TEMP              0 ****  ****    0 ROOT
