@<TRIPOS>MOLECULE
JMI
   47    48     1     0     0
SMALL
bcc


@<TRIPOS>ATOM
      1 C4         -31.7330    -5.5910   -13.6990 c6         1 JMI       0.125100
      2 C5         -31.6710    -7.0700   -14.0810 c6         1 JMI       0.146100
      3 C6         -31.2770    -7.2760   -15.5290 c3         1 JMI       0.149400
      4 C3         -32.0150    -5.4680   -12.2060 c6         1 JMI       0.069100
      5 C1         -30.9000    -7.6900   -11.9150 c6         1 JMI       0.348900
      6 C2         -31.0030    -6.2650   -11.3810 c6         1 JMI       0.100100
      7 CAA        -29.8700   -12.2040   -16.5920 c3         1 JMI      -0.181100
      8 CAG        -33.9350   -11.1750   -12.8410 ca         1 JMI      -0.102000
      9 CAH        -31.6290   -11.7700   -12.7490 ca         1 JMI      -0.102000
     10 CAI        -33.6370    -9.9250   -12.3200 ca         1 JMI      -0.158500
     11 CAJ        -31.3130   -10.5280   -12.2180 ca         1 JMI      -0.158500
     12 CAK        -33.3160   -13.1500   -15.3290 c3         1 JMI       0.108000
     13 CAQ        -30.9920   -13.0990   -16.1240 c          1 JMI       0.665100
     14 CAR        -32.9350   -12.1110   -13.0870 ca         1 JMI      -0.100300
     15 CAS        -32.3200    -9.5900   -12.0230 ca         1 JMI       0.129100
     16 NAN        -32.1570   -12.4780   -15.8670 ns         1 JMI      -0.569900
     17 O1         -32.0990    -8.3350   -11.5410 os         1 JMI      -0.372900
     18 O2         -29.7150    -5.7130   -11.4690 oh         1 JMI      -0.583800
     19 O3         -31.9540    -4.0950   -11.8760 oh         1 JMI      -0.611800
     20 O4         -32.7550    -4.9920   -14.4580 oh         1 JMI      -0.597800
     21 O5         -30.6970    -7.7300   -13.2850 os         1 JMI      -0.395600
     22 O6         -31.3620    -8.6500   -15.8340 oh         1 JMI      -0.595800
     23 OAB        -30.8490   -14.3100   -16.0160 o          1 JMI      -0.615100
     24 H1         -30.7580    -5.1330   -13.9200 h1         1 JMI       0.062700
     25 H2         -32.6660    -7.5110   -13.9270 h1         1 JMI       0.070700
     26 H3         -30.2630    -6.8840   -15.6850 h1         1 JMI       0.038700
     27 H4         -31.9520    -6.6840   -16.1560 h1         1 JMI       0.038700
     28 H5         -33.0180    -5.8710   -12.0170 h1         1 JMI       0.067700
     29 H6         -30.0320    -8.1900   -11.4700 h2         1 JMI       0.097700
     30 H7         -31.3450    -6.3090   -10.3370 h1         1 JMI       0.055700
     31 H8         -29.6770   -12.3890   -17.6500 hc         1 JMI       0.059700
     32 H9         -30.0730   -11.1430   -16.4620 hc         1 JMI       0.059700
     33 H10        -28.9590   -12.4510   -16.0490 hc         1 JMI       0.059700
     34 H11        -34.9650   -11.4110   -13.0840 ha         1 JMI       0.132500
     35 H12        -30.8310   -12.4840   -12.9160 ha         1 JMI       0.132500
     36 H13        -34.4220    -9.1970   -12.1580 ha         1 JMI       0.139500
     37 H14        -30.2810   -10.3090   -11.9790 ha         1 JMI       0.139500
     38 H15        -34.1840   -12.5290   -15.5530 h1         1 JMI       0.052700
     39 H16        -33.4620   -14.1000   -15.8450 h1         1 JMI       0.052700
     40 H17        -34.1840   -13.8150   -13.4860 hc         1 JMI       0.060200
     41 H18        -32.4610   -14.1330   -13.6070 hc         1 JMI       0.060200
     42 H19        -32.1760   -11.4720   -15.8940 hn         1 JMI       0.321500
     43 H20        -29.7960    -4.7650   -11.3120 ho         1 JMI       0.423000
     44 H21        -32.4660    -3.9450   -11.0750 ho         1 JMI       0.416000
     45 H22        -32.8030    -4.0630   -14.2110 ho         1 JMI       0.422000
     46 H23        -31.2000    -8.7570   -16.7760 ho         1 JMI       0.402000
     47 CAM        -33.2320   -13.3890   -13.8140 c3         1 JMI      -0.056100
@<TRIPOS>BOND
     1     1     2 1   
     2     1     4 1   
     3     1    20 1   
     4     1    24 1   
     5     2     3 1   
     6     2    21 1   
     7     2    25 1   
     8     3    22 1   
     9     3    26 1   
    10     3    27 1   
    11     4     6 1   
    12     4    19 1   
    13     4    28 1   
    14     5     6 1   
    15     5    17 1   
    16     5    21 1   
    17     5    29 1   
    18     6    18 1   
    19     6    30 1   
    20     7    13 1   
    21     7    31 1   
    22     7    32 1   
    23     7    33 1   
    24     8    10 ar  
    25     8    14 ar  
    26     8    34 1   
    27     9    11 ar  
    28     9    14 ar  
    29     9    35 1   
    30    10    15 ar  
    31    10    36 1   
    32    11    15 ar  
    33    11    37 1   
    34    12    16 1   
    35    12    38 1   
    36    12    39 1   
    37    12    47 1   
    38    13    16 1   
    39    13    23 2   
    40    14    47 1   
    41    15    17 1   
    42    16    42 1   
    43    18    43 1   
    44    19    44 1   
    45    20    45 1   
    46    22    46 1   
    47    40    47 1   
    48    41    47 1   
@<TRIPOS>SUBSTRUCTURE
     1 JMI         1 TEMP              0 ****  ****    0 ROOT
