@<TRIPOS>MOLECULE
JMK
   45    49     1     0     0
SMALL
No Charge or Current Charge


@<TRIPOS>ATOM
      1 C1           2.8020     1.2520    -1.4640 c3         1 JMK       0.250000
      2 C3           3.9280     1.1150    -0.4670 cc         1 JMK      -0.149400
      3 C11          4.4030    -1.4150    -0.5300 ca         1 JMK      -0.049000
      4 C12         -2.6330    -0.1320    -0.1220 cc         1 JMK       0.657100
      5 C16         -0.7330    -0.2940    -1.7690 c6         1 JMK       0.217800
      6 C17         -0.2470     0.1240     0.6530 c6         1 JMK       0.217800
      7 C18         -4.7690    -0.5180    -0.4990 ca         1 JMK       0.148400
      8 C19         -4.8210    -0.3670     0.8710 ca         1 JMK      -0.195000
      9 C20          0.5280     0.5500    -2.1340 c6         1 JMK       0.155800
     10 C21          1.0040     0.9540     0.2250 c6         1 JMK       0.155800
     11 C22         -5.9460    -0.7890    -1.2160 ca         1 JMK      -0.083000
     12 C23         -6.0220    -0.4770     1.5890 ca         1 JMK      -0.061000
     13 C24         -7.1690    -0.9050    -0.5240 ca         1 JMK      -0.100000
     14 C25         -7.2060    -0.7490     0.8780 ca         1 JMK      -0.124000
     15 N2           1.5820     0.5050    -1.0780 n3         1 JMK      -0.721600
     16 C4           4.6040    -0.0960    -0.0960 ca         1 JMK      -0.086800
     17 C5           5.5580     0.2230     0.8290 ca         1 JMK      -0.050200
     18 N6           5.5500     1.5800     1.0920 na         1 JMK      -0.224700
     19 C7           4.5280     2.1280     0.2780 cd         1 JMK      -0.159100
     20 C8           6.3900    -0.7570     1.3890 ca         1 JMK      -0.134000
     21 C9           6.2170    -2.0950     0.9730 ca         1 JMK      -0.089000
     22 C10          5.2260    -2.4230     0.0170 ca         1 JMK      -0.147000
     23 N13         -1.2920     0.0490    -0.4200 nh         1 JMK      -0.723600
     24 N14         -3.5200    -0.3860    -1.0920 nd         1 JMK      -0.643100
     25 S15         -3.2430    -0.0350     1.5560 ss         1 JMK      -0.047200
     26 H1           2.5670     2.3180    -1.5880 h1         1 JMK       0.035700
     27 H2           3.1660     0.8890    -2.4350 h1         1 JMK       0.035700
     28 H3           3.6350    -1.6520    -1.2620 ha         1 JMK       0.128000
     29 H4          -1.4770    -0.1380    -2.5630 h1         1 JMK       0.059700
     30 H5          -0.4610    -1.3590    -1.7920 h1         1 JMK       0.059700
     31 H6           0.0810    -0.8920     0.9170 h1         1 JMK       0.059700
     32 H7          -0.6430     0.5820     1.5690 h1         1 JMK       0.059700
     33 H8           0.9290     0.1780    -3.0880 h1         1 JMK       0.044700
     34 H9           0.2120     1.5890    -2.3060 h1         1 JMK       0.044700
     35 H10          0.7120     2.0130     0.1610 h1         1 JMK       0.044700
     36 H11          1.7520     0.8780     1.0270 h1         1 JMK       0.044700
     37 H12         -5.9120    -0.9090    -2.2960 ha         1 JMK       0.127000
     38 H13         -6.0390    -0.3540     2.6700 ha         1 JMK       0.120000
     39 H14         -8.0840    -1.1150    -1.0720 ha         1 JMK       0.113000
     40 H15         -8.1500    -0.8390     1.4100 ha         1 JMK       0.113000
     41 H17          6.1550     2.0810     1.7370 hn         1 JMK       0.350000
     42 H18          4.3020     3.1920     0.2850 h4         1 JMK       0.210000
     43 H19          7.1470    -0.4960     2.1250 ha         1 JMK       0.112000
     44 H20          6.8470    -2.8770     1.3900 ha         1 JMK       0.109000
     45 H21          5.0970    -3.4560    -0.2970 ha         1 JMK       0.111000
@<TRIPOS>BOND
     1     1     2 1   
     2     1    15 1   
     3     1    26 1   
     4     1    27 1   
     5     2    16 1   
     6     2    19 2   
     7     3    16 ar  
     8     3    22 ar  
     9     3    28 1   
    10     4    23 1   
    11     4    24 2   
    12     4    25 1   
    13     5     9 1   
    14     5    23 1   
    15     5    29 1   
    16     5    30 1   
    17     6    10 1   
    18     6    23 1   
    19     6    31 1   
    20     6    32 1   
    21     7     8 ar  
    22     7    11 ar  
    23     7    24 1   
    24     8    12 ar  
    25     8    25 1   
    26     9    15 1   
    27     9    33 1   
    28     9    34 1   
    29    10    15 1   
    30    10    35 1   
    31    10    36 1   
    32    11    13 ar  
    33    11    37 1   
    34    12    14 ar  
    35    12    38 1   
    36    13    14 ar  
    37    13    39 1   
    38    14    40 1   
    39    16    17 ar  
    40    17    18 1   
    41    17    20 ar  
    42    18    19 1   
    43    18    41 1   
    44    19    42 1   
    45    20    21 ar  
    46    20    43 1   
    47    21    22 ar  
    48    21    44 1   
    49    22    45 1   
@<TRIPOS>SUBSTRUCTURE
     1 JMK         1 TEMP              0 ****  ****    0 ROOT
