@<TRIPOS>MOLECULE
JMK
   45    49     1     0     0
SMALL
bcc


@<TRIPOS>ATOM
      1 C1           2.7470     1.4340    -1.4520 c3         1 JMK       0.250000
      2 C3           3.8730     1.1710    -0.5100 cc         1 JMK      -0.149400
      3 C11          3.9210    -1.4260    -0.2670 ca         1 JMK      -0.067000
      4 C12         -2.4350    -0.1420    -0.2020 cc         1 JMK       0.657100
      5 C16         -0.6380    -0.1170    -1.8100 c6         1 JMK       0.217800
      6 C17         -0.1410     0.1690     0.5740 c6         1 JMK       0.217800
      7 C18         -4.5640    -0.6090    -0.5210 ca         1 JMK       0.148400
      8 C19         -4.6080    -0.4910     0.8780 ca         1 JMK      -0.068100
      9 C20          0.5260     0.8030    -2.1170 c6         1 JMK       0.155800
     10 C21          1.0030     1.0840     0.1830 c6         1 JMK       0.155800
     11 C22         -5.7410    -0.9060    -1.2070 ca         1 JMK      -0.101000
     12 C23         -5.7790    -0.6630     1.5990 ca         1 JMK      -0.079000
     13 C24         -6.9160    -1.0790    -0.4930 ca         1 JMK      -0.118000
     14 C25         -6.9390    -0.9600     0.8970 ca         1 JMK      -0.142000
     15 N2           1.5470     0.6970    -1.0990 n3         1 JMK      -0.721600
     16 C4           4.3430    -0.1060    -0.0590 ca         1 JMK      -0.086800
     17 C5           5.4610     0.1350     0.7700 ca         1 JMK      -0.050200
     18 N6           5.6500     1.4850     0.8190 na         1 JMK      -0.174400
     19 C7           4.6960     2.1010     0.0580 cd         1 JMK      -0.109100
     20 C8           6.1710    -0.9000     1.3790 ca         1 JMK      -0.152000
     21 C9           5.7380    -2.1920     1.1470 ca         1 JMK      -0.107000
     22 C10          4.6230    -2.4530     0.3340 ca         1 JMK      -0.165000
     23 N13         -1.1490     0.1370    -0.4710 nh         1 JMK      -0.723600
     24 N14         -3.3340    -0.4160    -1.0950 nd         1 JMK      -0.643100
     25 S15         -3.0150    -0.1250     1.4710 ss         1 JMK      -0.174100
     26 H1           2.5660     2.5210    -1.5080 h1         1 JMK       0.035700
     27 H2           3.0300     1.1190    -2.4630 h1         1 JMK       0.035700
     28 H3           3.0500    -1.6270    -0.8760 ha         1 JMK       0.146000
     29 H4          -1.4350     0.0470    -2.5320 h1         1 JMK       0.059700
     30 H5          -0.3190    -1.1620    -1.8930 h1         1 JMK       0.059700
     31 H6           0.2400    -0.8410     0.7670 h1         1 JMK       0.059700
     32 H7          -0.5730     0.5470     1.5010 h1         1 JMK       0.059700
     33 H8           0.9440     0.5080    -3.0820 h1         1 JMK       0.044700
     34 H9           0.1550     1.8370    -2.2250 h1         1 JMK       0.044700
     35 H10          0.6480     2.1290     0.1800 h1         1 JMK       0.044700
     36 H11          1.7750     1.0050     0.9500 h1         1 JMK       0.044700
     37 H12         -5.7270    -0.9970    -2.2850 ha         1 JMK       0.145000
     38 H13         -5.7930    -0.5700     2.6770 ha         1 JMK       0.138000
     39 H14         -7.8300    -1.3120    -1.0230 ha         1 JMK       0.131000
     40 H15         -7.8670    -1.1010     1.4360 ha         1 JMK       0.131000
     41 H17          6.3730     1.9600     1.3320 hn         1 JMK       0.299700
     42 H18          4.6760     3.1760    -0.0310 h4         1 JMK       0.160000
     43 H19          7.0280    -0.7020     2.0100 ha         1 JMK       0.130000
     44 H20          6.2680    -3.0180     1.6050 ha         1 JMK       0.127000
     45 H21          4.3070    -3.4780     0.1830 ha         1 JMK       0.129000
@<TRIPOS>BOND
     1     1     2 1   
     2     1    15 1   
     3     1    26 1   
     4     1    27 1   
     5     2    16 1   
     6     2    19 2   
     7     3    16 ar  
     8     3    22 ar  
     9     3    28 1   
    10     4    23 1   
    11     4    24 2   
    12     4    25 1   
    13     5     9 1   
    14     5    23 1   
    15     5    29 1   
    16     5    30 1   
    17     6    10 1   
    18     6    23 1   
    19     6    31 1   
    20     6    32 1   
    21     7     8 ar  
    22     7    11 ar  
    23     7    24 1   
    24     8    12 ar  
    25     8    25 1   
    26     9    15 1   
    27     9    33 1   
    28     9    34 1   
    29    10    15 1   
    30    10    35 1   
    31    10    36 1   
    32    11    13 ar  
    33    11    37 1   
    34    12    14 ar  
    35    12    38 1   
    36    13    14 ar  
    37    13    39 1   
    38    14    40 1   
    39    16    17 ar  
    40    17    18 1   
    41    17    20 ar  
    42    18    19 1   
    43    18    41 1   
    44    19    42 1   
    45    20    21 ar  
    46    20    43 1   
    47    21    22 ar  
    48    21    44 1   
    49    22    45 1   
@<TRIPOS>SUBSTRUCTURE
     1 JMK         1 TEMP              0 ****  ****    0 ROOT
