@<TRIPOS>MOLECULE
JML
   41    44     1     0     0
SMALL
No Charge or Current Charge


@<TRIPOS>ATOM
      1 C4          13.1510    36.2460   -15.7240 c          1 JML       0.605600
      2 C5          16.1000    38.2810   -14.4250 ca         1 JML       0.052400
      3 C7          15.4630    34.6770   -16.7950 c6         1 JML      -0.081700
      4 C8          16.9830    36.4160   -15.6700 ca         1 JML      -0.151000
      5 C13         14.7790    39.6960   -13.4710 cc         1 JML       0.425800
      6 C15         16.1150    34.8630   -18.2030 c3         1 JML      -0.080100
      7 C17         14.2310    40.8620   -12.6930 c3         1 JML      -0.051400
      8 C20         12.0100    40.2490   -11.6100 ca         1 JML      -0.100500
      9 C21         11.9830    41.5890   -13.6410 ca         1 JML      -0.100500
     10 C22         10.6050    40.2750   -11.5750 ca         1 JML      -0.108000
     11 C24          9.8890    40.9590   -12.5720 ca         1 JML      -0.103000
     12 C1          14.5580    36.6900   -15.4520 ca         1 JML      -0.169600
     13 C2          14.8360    37.8440   -14.6950 ca         1 JML      -0.027200
     14 C3          15.6650    35.9580   -15.9520 ca         1 JML      -0.005300
     15 N6          13.9960    38.7310   -14.0960 na         1 JML      -0.290600
     16 N9          13.0080    35.1210   -16.4640 ns         1 JML      -0.464500
     17 O10         12.1650    36.8410   -15.3160 o          1 JML      -0.552000
     18 N11         16.0900    39.4440   -13.6570 nd         1 JML      -0.574100
     19 C12         17.2090    37.5790   -14.9060 ca         1 JML      -0.009000
     20 C14         13.9600    34.3180   -17.0090 c          1 JML       0.583000
     21 C16         16.1470    33.4640   -16.0840 c3         1 JML      -0.080100
     22 O18         13.6140    33.3380   -17.6510 o          1 JML      -0.520000
     23 C19         12.7060    40.9070   -12.6430 ca         1 JML      -0.100300
     24 C23         10.5780    41.6150   -13.6050 ca         1 JML      -0.108000
     25 H1          17.8450    35.8700   -16.0440 ha         1 JML       0.120000
     26 H2          15.9860    33.9720   -18.8300 hc         1 JML       0.050700
     27 H3          15.6630    35.7090   -18.7360 hc         1 JML       0.050700
     28 H4          17.1920    35.0540   -18.1380 hc         1 JML       0.050700
     29 H5          14.6370    40.8260   -11.6750 hc         1 JML       0.077200
     30 H6          14.6180    41.7890   -13.1310 hc         1 JML       0.077200
     31 H8          12.5080    42.0970   -14.4480 ha         1 JML       0.116500
     32 H9          10.0720    39.7660   -10.7750 ha         1 JML       0.115500
     33 H10          8.8010    40.9790   -12.5440 ha         1 JML       0.115000
     34 H11         12.9840    38.7040   -14.0990 hn         1 JML       0.386000
     35 H12         12.0560    34.8390   -16.6360 hn         1 JML       0.334500
     36 H14         18.2180    37.9230   -14.6940 ha         1 JML       0.133000
     37 H15         16.0190    32.5360   -16.6540 hc         1 JML       0.050700
     38 H16         17.2250    33.6150   -15.9570 hc         1 JML       0.050700
     39 H17         15.7180    33.3000   -15.0880 hc         1 JML       0.050700
     40 H18         10.0240    42.1430   -14.3790 ha         1 JML       0.115500
     41 H7          12.5560    39.7140   -10.8360 ha         1 JML       0.116500
@<TRIPOS>BOND
     1     1    12 1   
     2     1    16 1   
     3     1    17 2   
     4     2    13 ar  
     5     2    18 1   
     6     2    19 ar  
     7     3     6 1   
     8     3    14 1   
     9     3    20 1   
    10     3    21 1   
    11     4    14 ar  
    12     4    19 ar  
    13     4    25 1   
    14     5     7 1   
    15     5    15 1   
    16     5    18 2   
    17     6    26 1   
    18     6    27 1   
    19     6    28 1   
    20     7    23 1   
    21     7    29 1   
    22     7    30 1   
    23     8    10 ar  
    24     8    23 ar  
    25     8    41 1   
    26     9    23 ar  
    27     9    24 ar  
    28     9    31 1   
    29    10    11 ar  
    30    10    32 1   
    31    11    24 ar  
    32    11    33 1   
    33    12    13 ar  
    34    12    14 ar  
    35    13    15 1   
    36    15    34 1   
    37    16    20 1   
    38    16    35 1   
    39    19    36 1   
    40    20    22 2   
    41    21    37 1   
    42    21    38 1   
    43    21    39 1   
    44    24    40 1   
@<TRIPOS>SUBSTRUCTURE
     1 JML         1 TEMP              0 ****  ****    0 ROOT
