@<TRIPOS>MOLECULE
JML
   41    44     1     0     0
SMALL
abcg2


@<TRIPOS>ATOM
      1 C4          13.3560    35.5750   -14.9880 c          1 JML       0.605600
      2 C5          15.8640    38.3590   -14.5320 ca         1 JML       0.052400
      3 C7          15.4870    34.7450   -16.8560 c6         1 JML      -0.081700
      4 C8          16.7230    36.8190   -16.1390 ca         1 JML      -0.151000
      5 C13         14.6090    39.3140   -13.1040 cc         1 JML       0.425800
      6 C15         15.6230    35.0760   -18.3520 c3         1 JML      -0.080100
      7 C17         14.0370    40.2540   -12.1000 c3         1 JML      -0.051400
      8 C20         11.5410    40.4230   -11.7590 ca         1 JML      -0.100500
      9 C21         12.5220    41.5540   -13.6310 ca         1 JML      -0.100500
     10 C22         10.2850    40.8820   -12.1390 ca         1 JML      -0.108000
     11 C24         10.1460    41.6780   -13.2670 ca         1 JML      -0.103000
     12 C1          14.5650    36.3760   -15.1510 ca         1 JML      -0.169600
     13 C2          14.7250    37.5520   -14.4120 ca         1 JML      -0.027200
     14 C3          15.5810    36.0110   -16.0290 ca         1 JML      -0.005300
     15 N6          13.9470    38.1880   -13.4930 na         1 JML      -0.290600
     16 N9          13.2680    34.4470   -15.7650 ns         1 JML      -0.464500
     17 O10         12.4600    35.8660   -14.2180 o          1 JML      -0.552000
     18 N11         15.7580    39.4510   -13.7040 nd         1 JML      -0.574100
     19 C12         16.8780    37.9820   -15.4070 ca         1 JML      -0.009000
     20 C14         14.1780    33.9890   -16.6830 c          1 JML       0.583000
     21 C16         16.6070    33.7750   -16.4340 c3         1 JML      -0.080100
     22 O18         13.9340    32.9890   -17.3210 o          1 JML      -0.520000
     23 C19         12.6700    40.7550   -12.4990 ca         1 JML      -0.100300
     24 C23         11.2710    42.0130   -14.0130 ca         1 JML      -0.108000
     25 H1          17.5160    36.5330   -16.8170 ha         1 JML       0.120000
     26 H2          15.5660    34.1680   -18.9500 hc         1 JML       0.050700
     27 H3          14.8420    35.7610   -18.6810 hc         1 JML       0.050700
     28 H4          16.5870    35.5400   -18.5530 hc         1 JML       0.050700
     29 H5          13.9810    39.7580   -11.1270 hc         1 JML       0.077200
     30 H6          14.7360    41.0840   -11.9940 hc         1 JML       0.077200
     31 H8          13.3940    41.8210   -14.2180 ha         1 JML       0.116500
     32 H9           9.4150    40.6160   -11.5520 ha         1 JML       0.115500
     33 H10          9.1690    42.0360   -13.5640 ha         1 JML       0.115000
     34 H11         13.0420    37.8780   -13.1720 hn         1 JML       0.386000
     35 H12         12.4190    33.9000   -15.6670 hn         1 JML       0.334500
     36 H14         17.7700    38.5860   -15.5140 ha         1 JML       0.133000
     37 H15         16.5620    32.8590   -17.0210 hc         1 JML       0.050700
     38 H16         17.5820    34.2310   -16.6020 hc         1 JML       0.050700
     39 H17         16.5320    33.5160   -15.3770 hc         1 JML       0.050700
     40 H18         11.1710    42.6360   -14.8930 ha         1 JML       0.115500
     41 H7          11.6420    39.8020   -10.8770 ha         1 JML       0.116500
@<TRIPOS>BOND
     1     1    12 1   
     2     1    16 1   
     3     1    17 2   
     4     2    13 ar  
     5     2    18 1   
     6     2    19 ar  
     7     3     6 1   
     8     3    14 1   
     9     3    20 1   
    10     3    21 1   
    11     4    14 ar  
    12     4    19 ar  
    13     4    25 1   
    14     5     7 1   
    15     5    15 1   
    16     5    18 2   
    17     6    26 1   
    18     6    27 1   
    19     6    28 1   
    20     7    23 1   
    21     7    29 1   
    22     7    30 1   
    23     8    10 ar  
    24     8    23 ar  
    25     8    41 1   
    26     9    23 ar  
    27     9    24 ar  
    28     9    31 1   
    29    10    11 ar  
    30    10    32 1   
    31    11    24 ar  
    32    11    33 1   
    33    12    13 ar  
    34    12    14 ar  
    35    13    15 1   
    36    15    34 1   
    37    16    20 1   
    38    16    35 1   
    39    19    36 1   
    40    20    22 2   
    41    21    37 1   
    42    21    38 1   
    43    21    39 1   
    44    24    40 1   
@<TRIPOS>SUBSTRUCTURE
     1 JML         1 TEMP              0 ****  ****    0 ROOT
