@<TRIPOS>MOLECULE
JMM
   34    36     1     0     0
SMALL
bcc


@<TRIPOS>ATOM
      1 C10          1.1650     1.7190     0.3180 c6         1 JMM       0.069500
      2 C13         -0.2430    -0.6600    -0.4180 c6         1 JMM       0.071500
      3 C17          5.2000    -1.1860     0.3010 cx         1 JMM      -0.098900
      4 C01         -4.9620    -1.2660     0.4540 cc         1 JMM      -0.281300
      5 C02         -4.2470    -0.0870     0.8020 cc         1 JMM      -0.194300
      6 C03         -3.1380    -0.0680     0.0170 cd         1 JMM       0.165200
      7 O04         -3.1370    -1.1460    -0.8000 os         1 JMM      -0.318800
      8 C05         -4.2410    -1.8620    -0.5270 cd         1 JMM       0.248600
      9 C06         -2.0980     0.9750    -0.0740 c          1 JMM       0.606600
     10 O07         -2.4110     2.1170     0.2410 o          1 JMM      -0.583100
     11 N08         -0.8680     0.6490    -0.5360 n          1 JMM      -0.461800
     12 C09          0.1050     1.7040    -0.7730 c6         1 JMM       0.071500
     13 N11          1.7970     0.4150     0.4190 n          1 JMM      -0.474800
     14 C12          0.8320    -0.6390     0.6650 c6         1 JMM       0.069500
     15 C14          3.0960     0.2560     0.0660 c          1 JMM       0.707100
     16 O15          3.7740     1.2020    -0.3230 o          1 JMM      -0.608100
     17 C16          3.7030    -1.1010     0.1750 cx         1 JMM      -0.241700
     18 C18          4.5560    -1.5670    -0.9810 cx         1 JMM      -0.098900
     19 H101         1.9110     2.4790     0.1070 h1         1 JMM       0.065950
     20 H102         0.7020     1.9610     1.2800 h1         1 JMM       0.065950
     21 H131        -0.9660    -1.4290    -0.1670 h1         1 JMM       0.069950
     22 H132         0.2040    -0.9280    -1.3790 h1         1 JMM       0.069950
     23 H171         5.7550    -0.2590     0.3400 hc         1 JMM       0.081200
     24 H172         5.5840    -1.9730     0.9370 hc         1 JMM       0.081200
     25 H021        -4.5180     0.6470     1.5430 ha         1 JMM       0.175000
     26 H051        -4.3880    -2.7610    -1.1040 h4         1 JMM       0.055100
     27 H092        -0.3960     2.6660    -0.8280 h1         1 JMM       0.069950
     28 H091         0.5800     1.5150    -1.7400 h1         1 JMM       0.069950
     29 H122         0.3590    -0.4690     1.6380 h1         1 JMM       0.065950
     30 H121         1.3020    -1.6160     0.7030 h1         1 JMM       0.065950
     31 H161         3.1560    -1.8750     0.6910 hc         1 JMM       0.085700
     32 H181         4.6600    -0.8940    -1.8220 hc         1 JMM       0.081200
     33 H182         4.4910    -2.6140    -1.2440 hc         1 JMM       0.081200
     34 H011        -5.8890    -1.6210     0.8730 ha         1 JMM       0.165000
@<TRIPOS>BOND
     1     1    12 1   
     2     1    13 1   
     3     1    19 1   
     4     1    20 1   
     5     2    11 1   
     6     2    14 1   
     7     2    21 1   
     8     2    22 1   
     9     3    17 1   
    10     3    18 1   
    11     3    23 1   
    12     3    24 1   
    13     4     5 1   
    14     4     8 2   
    15     4    34 1   
    16     5     6 2   
    17     5    25 1   
    18     6     7 1   
    19     6     9 1   
    20     7     8 1   
    21     8    26 1   
    22     9    10 2   
    23     9    11 1   
    24    11    12 1   
    25    12    27 1   
    26    12    28 1   
    27    13    14 1   
    28    13    15 1   
    29    14    29 1   
    30    14    30 1   
    31    15    16 2   
    32    15    17 1   
    33    17    18 1   
    34    17    31 1   
    35    18    32 1   
    36    18    33 1   
@<TRIPOS>SUBSTRUCTURE
     1 JMM         1 TEMP              0 ****  ****    0 ROOT
