@<TRIPOS>MOLECULE
JMM
   34    36     1     0     0
SMALL
No Charge or Current Charge


@<TRIPOS>ATOM
      1 C10          1.4210     1.8390     0.4530 c6         1 JMM       0.069500
      2 C13         -0.2900    -0.5360     0.2400 c6         1 JMM       0.071500
      3 C17          5.2930    -1.3170    -0.5060 cx         1 JMM      -0.098900
      4 C01         -5.1500    -1.3530    -0.3620 cc         1 JMM      -0.198000
      5 C02         -4.6340    -0.0460    -0.2920 cc         1 JMM      -0.111000
      6 C03         -3.2750    -0.1660    -0.1350 cd         1 JMM       0.055500
      7 O04         -2.9030    -1.4990    -0.1160 os         1 JMM      -0.230000
      8 C05         -4.0820    -2.1970    -0.2500 cd         1 JMM       0.138900
      9 C06         -2.3330     1.0120    -0.0410 c          1 JMM       0.539600
     10 O07         -2.7670     2.1550    -0.1470 o          1 JMM      -0.583100
     11 N08         -0.9320     0.8120     0.1640 n          1 JMM      -0.394800
     12 C09         -0.0030     1.9440    -0.1310 c6         1 JMM       0.071500
     13 N11          2.0560     0.5150     0.2660 n          1 JMM      -0.407800
     14 C12          1.1860    -0.6060     0.7100 c6         1 JMM       0.069500
     15 C14          3.4690     0.4100     0.2280 c          1 JMM       0.640100
     16 O15          4.1930     1.3940     0.1430 o          1 JMM      -0.608100
     17 C16          4.0450    -0.9920     0.2950 cx         1 JMM      -0.241700
     18 C18          3.9580    -1.8730    -0.9370 cx         1 JMM      -0.098900
     19 H101         2.0380     2.6270    -0.0010 h1         1 JMM       0.065950
     20 H102         1.3750     2.0500     1.5310 h1         1 JMM       0.065950
     21 H131        -0.8520    -1.1670     0.9410 h1         1 JMM       0.069950
     22 H132        -0.3570    -1.0010    -0.7540 h1         1 JMM       0.069950
     23 H171         5.7340    -0.5350    -1.1190 hc         1 JMM       0.081200
     24 H172         6.0110    -2.0070    -0.0680 hc         1 JMM       0.081200
     25 H021        -5.2100     0.8730    -0.3520 ha         1 JMM       0.157000
     26 H051        -4.0280    -3.2790    -0.2560 h4         1 JMM       0.055100
     27 H092        -0.4390     2.8880     0.2260 h1         1 JMM       0.069950
     28 H091         0.0830     2.0300    -1.2240 h1         1 JMM       0.069950
     29 H122         1.1950    -0.6170     1.8090 h1         1 JMM       0.065950
     30 H121         1.5880    -1.5740     0.3830 h1         1 JMM       0.065950
     31 H161         3.9530    -1.4780     1.2620 hc         1 JMM       0.085700
     32 H181         3.5020    -1.4570    -1.8330 hc         1 JMM       0.081200
     33 H182         3.7790    -2.9360    -0.7910 hc         1 JMM       0.081200
     34 H011        -6.1940    -1.6260    -0.4820 ha         1 JMM       0.147000
@<TRIPOS>BOND
     1     1    12 1   
     2     1    13 1   
     3     1    19 1   
     4     1    20 1   
     5     2    11 1   
     6     2    14 1   
     7     2    21 1   
     8     2    22 1   
     9     3    17 1   
    10     3    18 1   
    11     3    23 1   
    12     3    24 1   
    13     4     5 1   
    14     4     8 2   
    15     4    34 1   
    16     5     6 2   
    17     5    25 1   
    18     6     7 1   
    19     6     9 1   
    20     7     8 1   
    21     8    26 1   
    22     9    10 2   
    23     9    11 1   
    24    11    12 1   
    25    12    27 1   
    26    12    28 1   
    27    13    14 1   
    28    13    15 1   
    29    14    29 1   
    30    14    30 1   
    31    15    16 2   
    32    15    17 1   
    33    17    18 1   
    34    17    31 1   
    35    18    32 1   
    36    18    33 1   
@<TRIPOS>SUBSTRUCTURE
     1 JMM         1 TEMP              0 ****  ****    0 ROOT
