@<TRIPOS>MOLECULE
JMN
   40    41     1     0     0
SMALL
abcg2


@<TRIPOS>ATOM
      1 C1          -0.5800    -0.5110     0.2240 c6         1 JMN       0.181300
      2 C3          -1.5460    -1.6710     0.0720 c6         1 JMN       0.172300
      3 O2           0.6460    -0.8920    -0.3780 os         1 JMN      -0.338100
      4 C12          4.1660    -0.0640    -0.5290 ca         1 JMN      -0.039300
      5 C13          3.1500     1.3340     1.1270 ca         1 JMN      -0.071000
      6 C15          4.2910     0.9440     0.4410 ca         1 JMN      -0.115300
      7 C16          5.3660    -0.5260    -1.3020 c3         1 JMN      -0.047800
      8 C17         -5.4340     1.1850    -0.4740 c1         1 JMN      -0.147100
      9 C18          5.6200     1.5770     0.7310 c3         1 JMN      -0.037800
     10 C19         -5.9750     2.0040    -1.1680 c1         1 JMN      -0.230000
     11 C4          -1.1660     0.7320    -0.4300 c6         1 JMN      -0.109400
     12 C5           1.7880    -0.2400    -0.0640 ca         1 JMN       0.151100
     13 C6          -2.9080    -1.2640     0.6350 c6         1 JMN       0.127800
     14 O7          -1.0240    -2.7790     0.7620 oh         1 JMN      -0.645000
     15 C8          -2.5430     1.0430     0.1300 c6         1 JMN       0.164800
     16 C9           2.9260    -0.6370    -0.7680 ca         1 JMN      -0.144000
     17 C10          1.9040     0.7610     0.8920 ca         1 JMN      -0.201000
     18 N11         -3.4290    -0.0950    -0.0460 n3         1 JMN      -0.711600
     19 H1          -0.4370    -0.3370     1.3000 h1         1 JMN       0.054700
     20 H2          -1.6690    -1.8870    -1.0000 h1         1 JMN       0.059700
     21 H3           3.2230     2.1140     1.8750 ha         1 JMN       0.107000
     22 H4          -4.8370     0.5360     1.4250 h1         1 JMN       0.048200
     23 H5          -5.3690    -0.7320     0.3340 h1         1 JMN       0.048200
     24 H6           6.1050    -0.9940    -0.6470 hc         1 JMN       0.042033
     25 H7           5.0960    -1.2540    -2.0650 hc         1 JMN       0.042033
     26 H8           5.8690     0.3060    -1.7980 hc         1 JMN       0.042033
     27 H9           6.0720     2.0090    -0.1640 hc         1 JMN       0.037700
     28 H10          5.5240     2.3730     1.4680 hc         1 JMN       0.037700
     29 H11          6.3360     0.8510     1.1240 hc         1 JMN       0.037700
     30 H12         -6.4550     2.7320    -1.7810 ha         1 JMN       0.256000
     31 H13         -0.5140     1.5940    -0.2780 hc         1 JMN       0.065200
     32 H14         -1.2400     0.5690    -1.5080 hc         1 JMN       0.065200
     33 H15         -3.6070    -2.0940     0.4980 h1         1 JMN       0.039700
     34 H16         -2.8100    -1.1020     1.7230 h1         1 JMN       0.039700
     35 H17         -1.5840    -3.5400     0.5810 ho         1 JMN       0.444000
     36 H18         -2.4620     1.3290     1.1930 h1         1 JMN       0.040700
     37 H19         -2.9560     1.9050    -0.3980 h1         1 JMN       0.040700
     38 H20          2.8310    -1.4170    -1.5160 ha         1 JMN       0.125000
     39 H21          1.0570     1.1130     1.4650 ha         1 JMN       0.114000
     40 C14         -4.7860     0.1920     0.3790 c3         1 JMN       0.254900
@<TRIPOS>BOND
     1     1     2 1   
     2     1     3 1   
     3     1    11 1   
     4     1    19 1   
     5     2    13 1   
     6     2    14 1   
     7     2    20 1   
     8     3    12 1   
     9     4     6 ar  
    10     4     7 1   
    11     4    16 ar  
    12     5     6 ar  
    13     5    17 ar  
    14     5    21 1   
    15     6     9 1   
    16     7    24 1   
    17     7    25 1   
    18     7    26 1   
    19     8    10 3   
    20     8    40 1   
    21     9    27 1   
    22     9    28 1   
    23     9    29 1   
    24    10    30 1   
    25    11    15 1   
    26    11    31 1   
    27    11    32 1   
    28    12    16 ar  
    29    12    17 ar  
    30    13    18 1   
    31    13    33 1   
    32    13    34 1   
    33    14    35 1   
    34    15    18 1   
    35    15    36 1   
    36    15    37 1   
    37    16    38 1   
    38    17    39 1   
    39    18    40 1   
    40    22    40 1   
    41    23    40 1   
@<TRIPOS>SUBSTRUCTURE
     1 JMN         1 TEMP              0 ****  ****    0 ROOT
