@<TRIPOS>MOLECULE
JMN
   40    41     1     0     0
SMALL
No Charge or Current Charge


@<TRIPOS>ATOM
      1 C1          -0.5860    -0.6660     0.2940 c6         1 JMN       0.181300
      2 C3          -1.6330    -1.8070     0.1230 c6         1 JMN       0.172300
      3 O2           0.7030    -1.0760    -0.2280 os         1 JMN      -0.338100
      4 C12          4.2260    -0.0360    -0.5340 ca         1 JMN      -0.039300
      5 C13          3.1690     1.3350     1.1840 ca         1 JMN      -0.071000
      6 C15          4.3100     0.9970     0.4300 ca         1 JMN      -0.115300
      7 C16          5.4380    -0.4380    -1.3690 c3         1 JMN      -0.047800
      8 C17         -5.4600     1.3340    -0.5060 c1         1 JMN      -0.147100
      9 C18          5.6150     1.7500     0.6710 c3         1 JMN      -0.037800
     10 C19         -5.9530     2.1990    -1.1960 c1         1 JMN      -0.230000
     11 C4          -1.0940     0.6140    -0.4180 c6         1 JMN      -0.109400
     12 C5           1.8630    -0.3630     0.0190 ca         1 JMN       0.151100
     13 C6          -3.0220    -1.3240     0.6360 c6         1 JMN       0.127800
     14 O7          -1.2240    -3.0110     0.8070 oh         1 JMN      -0.645000
     15 C8          -2.4850     1.0250     0.1130 c6         1 JMN       0.164800
     16 C9           3.0020    -0.7060    -0.7250 ca         1 JMN      -0.144000
     17 C10          1.9530     0.6610     0.9860 ca         1 JMN      -0.201000
     18 N11         -3.4780    -0.0780    -0.0490 n3         1 JMN      -0.711600
     19 H1          -0.4890    -0.4760     1.3720 h1         1 JMN       0.054700
     20 H2          -1.7280    -2.0110    -0.9550 h1         1 JMN       0.059700
     21 H3           3.2230     2.1240     1.9310 ha         1 JMN       0.107000
     22 H4          -4.8590     0.6720     1.3940 h1         1 JMN       0.048200
     23 H5          -5.5120    -0.5730     0.3240 h1         1 JMN       0.048200
     24 H6           6.2610    -0.7820    -0.7320 hc         1 JMN       0.042033
     25 H7           5.2020    -1.2530    -2.0640 hc         1 JMN       0.042033
     26 H8           5.8030     0.4050    -1.9670 hc         1 JMN       0.042033
     27 H9           5.9550     2.2550    -0.2410 hc         1 JMN       0.037700
     28 H10          5.5060     2.5170     1.4470 hc         1 JMN       0.037700
     29 H11          6.4100     1.0690     0.9970 hc         1 JMN       0.037700
     30 H12         -6.3790     2.9630    -1.8160 ha         1 JMN       0.256000
     31 H13         -0.3930     1.4450    -0.2730 hc         1 JMN       0.065200
     32 H14         -1.1520     0.4390    -1.5000 hc         1 JMN       0.065200
     33 H15         -3.7530    -2.1290     0.4710 h1         1 JMN       0.039700
     34 H16         -2.9650    -1.1580     1.7220 h1         1 JMN       0.039700
     35 H17         -1.8060    -3.7340     0.4840 ho         1 JMN       0.444000
     36 H18         -2.3970     1.3060     1.1740 h1         1 JMN       0.040700
     37 H19         -2.8070     1.9240    -0.4320 h1         1 JMN       0.040700
     38 H20          2.9280    -1.5010    -1.4620 ha         1 JMN       0.125000
     39 H21          1.1010     0.9470     1.5940 ha         1 JMN       0.114000
     40 C14         -4.8540     0.3070     0.3580 c3         1 JMN       0.254900
@<TRIPOS>BOND
     1     1     2 1   
     2     1     3 1   
     3     1    11 1   
     4     1    19 1   
     5     2    13 1   
     6     2    14 1   
     7     2    20 1   
     8     3    12 1   
     9     4     6 ar  
    10     4     7 1   
    11     4    16 ar  
    12     5     6 ar  
    13     5    17 ar  
    14     5    21 1   
    15     6     9 1   
    16     7    24 1   
    17     7    25 1   
    18     7    26 1   
    19     8    10 3   
    20     8    40 1   
    21     9    27 1   
    22     9    28 1   
    23     9    29 1   
    24    10    30 1   
    25    11    15 1   
    26    11    31 1   
    27    11    32 1   
    28    12    16 ar  
    29    12    17 ar  
    30    13    18 1   
    31    13    33 1   
    32    13    34 1   
    33    14    35 1   
    34    15    18 1   
    35    15    36 1   
    36    15    37 1   
    37    16    38 1   
    38    17    39 1   
    39    18    40 1   
    40    22    40 1   
    41    23    40 1   
@<TRIPOS>SUBSTRUCTURE
     1 JMN         1 TEMP              0 ****  ****    0 ROOT
