@<TRIPOS>MOLECULE
JMO
   28    27     1     0     0
SMALL
No Charge or Current Charge


@<TRIPOS>ATOM
      1 C7          45.8590    47.4880    38.2030 c3         1 JMO       0.151100
      2 O2          49.1020    47.0190    34.5990 o          1 JMO      -0.482000
      3 O3          52.7610    46.9970    35.6360 o          1 JMO      -0.710500
      4 O4          49.4620    45.8830    36.5680 os         1 JMO      -0.454100
      5 C8          47.2160    46.7530    36.1970 c3         1 JMO       0.121500
      6 C9          46.2730    47.3040    35.0980 c3         1 JMO      -0.077100
      7 C10         48.6940    46.6050    35.6800 c          1 JMO       0.612100
      8 C11         51.7310    46.9710    36.2960 c          1 JMO       0.717000
      9 C12         50.8670    45.6580    36.2570 c3         1 JMO       0.025300
     10 C13         51.3620    44.5980    37.2750 c3         1 JMO      -0.049400
     11 C14         52.7740    44.0320    36.9780 c3         1 JMO      -0.025300
     12 C15         53.1660    42.9640    37.9060 c1         1 JMO       0.327900
     13 N2          47.1180    47.5910    37.4390 n7         1 JMO      -0.845400
     14 N3          53.5010    42.1130    38.6290 n1         1 JMO      -0.534000
     15 H73         45.9170    48.0960    39.1160 h1         1 JMO       0.016700
     16 H72         45.0060    47.8470    37.6140 h1         1 JMO       0.016700
     17 H71         45.6660    46.4480    38.4970 h1         1 JMO       0.016700
     18 H8          46.8890    45.7310    36.4350 h1         1 JMO       0.020700
     19 H92         45.2260    47.2790    35.4200 hc         1 JMO       0.037367
     20 H91         46.5330    48.3390    34.8430 hc         1 JMO       0.037367
     21 H93         46.3520    46.6980    34.1880 hc         1 JMO       0.037367
     22 OXT         51.3130    47.9440    36.9110 o          1 JMO      -0.710500
     23 H12         50.9590    45.2310    35.2490 h1         1 JMO       0.044700
     24 H131        51.3500    45.0360    38.2820 hc         1 JMO       0.038200
     25 H132        50.6460    43.7650    37.2840 hc         1 JMO       0.038200
     26 H141        52.8090    43.6340    35.9580 hc         1 JMO       0.090200
     27 H142        53.5240    44.8280    37.0420 hc         1 JMO       0.090200
     28 H2          47.8810    47.2920    38.0660 hn         1 JMO       0.450000
@<TRIPOS>BOND
     1     1    13 1   
     2     1    15 1   
     3     1    16 1   
     4     1    17 1   
     5     2     7 2   
     6     3     8 1   
     7     4     7 1   
     8     4     9 1   
     9     5     6 1   
    10     5     7 1   
    11     5    13 1   
    12     5    18 1   
    13     6    19 1   
    14     6    20 1   
    15     6    21 1   
    16     8     9 1   
    17     8    22 1   
    18     9    10 1   
    19     9    23 1   
    20    10    11 1   
    21    10    24 1   
    22    10    25 1   
    23    11    12 1   
    24    11    26 1   
    25    11    27 1   
    26    12    14 3   
    27    13    28 1   
@<TRIPOS>SUBSTRUCTURE
     1 JMO         1 TEMP              0 ****  ****    0 ROOT
