@<TRIPOS>MOLECULE
JMO
   28    27     1     0     0
SMALL
abcg2


@<TRIPOS>ATOM
      1 C7          46.0990    47.5300    38.1450 c3         1 JMO       0.151100
      2 O2          49.0620    46.8810    34.6040 o          1 JMO      -0.482000
      3 O3          52.6270    47.0470    35.9770 o          1 JMO      -0.710500
      4 O4          49.3660    45.7200    36.4870 os         1 JMO      -0.454100
      5 C8          47.2340    46.6540    36.1800 c3         1 JMO       0.121500
      6 C9          46.3430    47.2810    35.1230 c3         1 JMO      -0.077100
      7 C10         48.6470    46.4530    35.6500 c          1 JMO       0.612100
      8 C11         51.4740    46.9910    36.4460 c          1 JMO       0.717000
      9 C12         50.7730    45.6230    36.2500 c3         1 JMO       0.025300
     10 C13         51.2750    44.5830    37.2490 c3         1 JMO      -0.049400
     11 C14         52.7070    44.1380    36.9440 c3         1 JMO      -0.025300
     12 C15         53.1600    43.1240    37.8820 c1         1 JMO       0.327900
     13 N2          47.3240    47.4920    37.3700 n7         1 JMO      -0.845400
     14 N3          53.5200    42.3270    38.6300 n1         1 JMO      -0.534000
     15 H73         46.2900    48.0400    39.0880 h1         1 JMO       0.016700
     16 H72         45.3240    48.0940    37.6250 h1         1 JMO       0.016700
     17 H71         45.6880    46.5360    38.3750 h1         1 JMO       0.016700
     18 H8          46.8340    45.6530    36.4220 h1         1 JMO       0.020700
     19 H92         45.3170    47.3620    35.4800 hc         1 JMO       0.037367
     20 H91         46.6900    48.2800    34.8600 hc         1 JMO       0.037367
     21 H93         46.3230    46.6730    34.2190 hc         1 JMO       0.037367
     22 OXT         50.8530    47.8650    37.0690 o          1 JMO      -0.710500
     23 H12         50.9480    45.2600    35.2320 h1         1 JMO       0.044700
     24 H131        51.2180    44.9810    38.2650 hc         1 JMO       0.038200
     25 H132        50.6200    43.7090    37.2070 hc         1 JMO       0.038200
     26 H141        52.7740    43.7210    35.9360 hc         1 JMO       0.090200
     27 H142        53.4000    44.9780    36.9860 hc         1 JMO       0.090200
     28 H2          48.0670    47.1460    37.9640 hn         1 JMO       0.450000
@<TRIPOS>BOND
     1     1    13 1   
     2     1    15 1   
     3     1    16 1   
     4     1    17 1   
     5     2     7 2   
     6     3     8 1   
     7     4     7 1   
     8     4     9 1   
     9     5     6 1   
    10     5     7 1   
    11     5    13 1   
    12     5    18 1   
    13     6    19 1   
    14     6    20 1   
    15     6    21 1   
    16     8     9 1   
    17     8    22 1   
    18     9    10 1   
    19     9    23 1   
    20    10    11 1   
    21    10    24 1   
    22    10    25 1   
    23    11    12 1   
    24    11    26 1   
    25    11    27 1   
    26    12    14 3   
    27    13    28 1   
@<TRIPOS>SUBSTRUCTURE
     1 JMO         1 TEMP              0 ****  ****    0 ROOT
