@<TRIPOS>MOLECULE
JMP
   38    39     1     0     0
SMALL
bcc


@<TRIPOS>ATOM
      1 N            0.2410    -0.1130     0.6970 ns         1 JMP      -0.454100
      2 O1           1.6350    -1.5350     1.8170 o          1 JMP      -0.592100
      3 C2           3.2070     0.3590    -0.5050 ca         1 JMP      -0.108600
      4 O2          -4.4250    -0.0110    -0.3820 os         1 JMP      -0.341900
      5 C3           2.5810     0.3640     0.7420 ca         1 JMP      -0.133600
      6 O3           3.3230    -0.4910    -2.7070 o          1 JMP      -0.810300
      7 C4           3.0020     1.2410     1.7380 ca         1 JMP      -0.127000
      8 O4           1.9560    -1.4830    -1.2500 o          1 JMP      -0.810300
      9 C5           4.0420     2.1270     1.4990 ca         1 JMP      -0.164000
     10 C6           4.6660     2.1350     0.2590 ca         1 JMP      -0.147000
     11 C7           4.2470     1.2570    -0.7300 ca         1 JMP      -0.110000
     12 C8           1.4570    -0.5690     1.0990 c          1 JMP       0.744700
     13 C9          -1.0110    -0.7140     0.8130 ca         1 JMP       0.151600
     14 C10         -2.0660    -0.0570     0.1680 ca         1 JMP      -0.287000
     15 C11         -3.3580    -0.5640     0.2230 ca         1 JMP       0.169100
     16 C12         -3.6040    -1.7420     0.9340 ca         1 JMP      -0.219000
     17 C13         -2.5550    -2.3800     1.5670 ca         1 JMP      -0.075000
     18 C14         -1.2550    -1.8880     1.5230 ca         1 JMP      -0.192000
     19 C15         -4.3150     1.2320    -1.0840 c3         1 JMP       0.156100
     20 C16         -5.5030     1.2940    -2.0230 c3         1 JMP      -0.104100
     21 C17         -4.2960     2.4010    -0.1130 c3         1 JMP      -0.104100
     22 HN           0.2640     0.7070     0.1100 hn         1 JMP       0.318500
     23 H4           2.5130     1.2390     2.7040 ha         1 JMP       0.116000
     24 H5           4.3610     2.8080     2.2770 ha         1 JMP       0.107000
     25 H6           5.4790     2.8220     0.0650 ha         1 JMP       0.107000
     26 H7           4.7360     1.2590    -1.6950 ha         1 JMP       0.150000
     27 H10         -1.8460     0.8550    -0.3730 ha         1 JMP       0.128000
     28 H12         -4.6090    -2.1430     0.9830 ha         1 JMP       0.129000
     29 H13         -2.7480    -3.2930     2.1160 ha         1 JMP       0.118000
     30 H14         -0.4650    -2.4090     2.0340 ha         1 JMP       0.169000
     31 H15         -3.3990     1.2310    -1.6840 h1         1 JMP       0.051700
     32 H16         -6.4440     1.2950    -1.4710 hc         1 JMP       0.041033
     33 H16A        -5.4590     2.2100    -2.6110 hc         1 JMP       0.041033
     34 H16B        -5.5060     0.4510    -2.7150 hc         1 JMP       0.041033
     35 H17         -5.2160     2.4280     0.4740 hc         1 JMP       0.041033
     36 H17A        -3.4520     2.3560     0.5750 hc         1 JMP       0.041033
     37 H17B        -4.2210     3.3380    -0.6640 hc         1 JMP       0.041033
     38 C1           2.7910    -0.6240    -1.5910 c          1 JMP       0.917200
@<TRIPOS>BOND
     1     1    12 1   
     2     1    13 1   
     3     1    22 1   
     4     2    12 2   
     5     3     5 ar  
     6     3    11 ar  
     7     3    38 1   
     8     4    15 1   
     9     4    19 1   
    10     5     7 ar  
    11     5    12 1   
    12     6    38 1   
    13     7     9 ar  
    14     7    23 1   
    15     8    38 1   
    16     9    10 ar  
    17     9    24 1   
    18    10    11 ar  
    19    10    25 1   
    20    11    26 1   
    21    13    14 ar  
    22    13    18 ar  
    23    14    15 ar  
    24    14    27 1   
    25    15    16 ar  
    26    16    17 ar  
    27    16    28 1   
    28    17    18 ar  
    29    17    29 1   
    30    18    30 1   
    31    19    20 1   
    32    19    21 1   
    33    19    31 1   
    34    20    32 1   
    35    20    33 1   
    36    20    34 1   
    37    21    35 1   
    38    21    36 1   
    39    21    37 1   
@<TRIPOS>SUBSTRUCTURE
     1 JMP         1 TEMP              0 ****  ****    0 ROOT
