@<TRIPOS>MOLECULE
JMP
   38    39     1     0     0
SMALL
No Charge or Current Charge


@<TRIPOS>ATOM
      1 N            0.2810    -0.1770     0.7560 ns         1 JMP      -0.128000
      2 O1           1.5440    -1.1280     2.4310 o          1 JMP      -0.592100
      3 C2           2.9110     0.7230    -0.4000 ca         1 JMP      -0.108600
      4 O2          -4.4000    -0.1230    -0.5820 os         1 JMP      -0.365100
      5 C3           2.6750     0.3950     0.9720 ca         1 JMP      -0.133600
      6 O3           1.5640     1.0130    -2.3010 o          1 JMP      -0.705000
      7 C4           3.6120     0.8260     1.9410 ca         1 JMP      -0.109000
      8 O4           1.9000    -1.0060    -1.6230 o          1 JMP      -0.705000
      9 C5           4.7290     1.5950     1.5810 ca         1 JMP      -0.146000
     10 C6           4.9370     1.9430     0.2410 ca         1 JMP      -0.129000
     11 C7           4.0370     1.5050    -0.7420 ca         1 JMP      -0.092000
     12 C8           1.4610    -0.3850     1.4570 c          1 JMP       0.677700
     13 C9          -1.0250    -0.7180     0.8940 ca         1 JMP       0.059000
     14 C10         -2.0420    -0.1560     0.0990 ca         1 JMP      -0.269000
     15 C11         -3.3670    -0.6360     0.1780 ca         1 JMP       0.169100
     16 C12         -3.6660    -1.6960     1.0460 ca         1 JMP      -0.201000
     17 C13         -2.6600    -2.2700     1.8380 ca         1 JMP      -0.057000
     18 C14         -1.3450    -1.7840     1.7630 ca         1 JMP      -0.174000
     19 C15         -4.2940     1.0880    -1.3570 c3         1 JMP       0.179300
     20 C16         -5.5060     1.1100    -2.3080 c3         1 JMP      -0.104100
     21 C17         -4.2910     2.2950    -0.3920 c3         1 JMP      -0.104100
     22 HN           0.3600     0.4960     0.0060 hn         1 JMP       0.152000
     23 H4           3.4620     0.5820     2.9910 ha         1 JMP       0.098000
     24 H5           5.4300     1.9270     2.3430 ha         1 JMP       0.089000
     25 H6           5.8010     2.5400    -0.0400 ha         1 JMP       0.089000
     26 H7           4.2230     1.7560    -1.7850 ha         1 JMP       0.132000
     27 H10         -1.7830     0.6530    -0.5760 ha         1 JMP       0.110000
     28 H12         -4.6830    -2.0740     1.1040 ha         1 JMP       0.111000
     29 H13         -2.8990    -3.0930     2.5080 ha         1 JMP       0.100000
     30 H14         -0.5890    -2.2570     2.3820 ha         1 JMP       0.151000
     31 H15         -3.3830     1.0910    -1.9700 h1         1 JMP       0.051700
     32 H16         -6.4470     1.0970    -1.7450 hc         1 JMP       0.041033
     33 H16A        -5.4890     2.0120    -2.9300 hc         1 JMP       0.041033
     34 H16B        -5.4880     0.2380    -2.9730 hc         1 JMP       0.041033
     35 H17         -5.1880     2.2900     0.2390 hc         1 JMP       0.041033
     36 H17A        -3.4110     2.2820     0.2610 hc         1 JMP       0.041033
     37 H17B        -4.2760     3.2340    -0.9570 hc         1 JMP       0.041033
     38 C1           2.0520     0.2020    -1.5290 c          1 JMP       0.706600
@<TRIPOS>BOND
     1     1    12 1   
     2     1    13 1   
     3     1    22 1   
     4     2    12 2   
     5     3     5 ar  
     6     3    11 ar  
     7     3    38 1   
     8     4    15 1   
     9     4    19 1   
    10     5     7 ar  
    11     5    12 1   
    12     6    38 1   
    13     7     9 ar  
    14     7    23 1   
    15     8    38 1   
    16     9    10 ar  
    17     9    24 1   
    18    10    11 ar  
    19    10    25 1   
    20    11    26 1   
    21    13    14 ar  
    22    13    18 ar  
    23    14    15 ar  
    24    14    27 1   
    25    15    16 ar  
    26    16    17 ar  
    27    16    28 1   
    28    17    18 ar  
    29    17    29 1   
    30    18    30 1   
    31    19    20 1   
    32    19    21 1   
    33    19    31 1   
    34    20    32 1   
    35    20    33 1   
    36    20    34 1   
    37    21    35 1   
    38    21    36 1   
    39    21    37 1   
@<TRIPOS>SUBSTRUCTURE
     1 JMP         1 TEMP              0 ****  ****    0 ROOT
