@<TRIPOS>MOLECULE
JMQ
   36    38     1     0     0
SMALL
bcc


@<TRIPOS>ATOM
      1 C1           0.4640    -1.3610     0.3000 c3         1 JMQ       0.294100
      2 C2          -2.8100     0.5960    -2.0090 cc         1 JMQ       0.466800
      3 C8          -1.4940    -0.9310     1.9110 cc         1 JMQ      -0.116300
      4 C9          -0.9040    -0.8860     0.6670 cd         1 JMQ      -0.142300
      5 O6          -5.1520     0.9940     0.6280 o          1 JMQ      -0.635500
      6 C6          -4.1210     0.6830     0.0490 c          1 JMQ       0.739100
      7 N1          -3.9270     0.9250    -1.3040 ns         1 JMQ      -0.491400
      8 N3          -1.7700     0.0220    -1.5160 nd         1 JMQ      -0.560100
      9 C4          -1.8490    -0.2550    -0.1800 cd         1 JMQ       0.145400
     10 C5          -2.9680     0.0460     0.5920 cc         1 JMQ      -0.245900
     11 N7          -2.7290    -0.3740     1.8620 na         1 JMQ      -0.124100
     12 N4           1.3540    -0.2540     0.0630 n3         1 JMQ      -0.764600
     13 C7           1.6570     0.5710     1.2120 c5         1 JMQ       0.159800
     14 C10          2.7880     1.4630     0.7260 c5         1 JMQ       0.103100
     15 O2           2.3570     2.4760    -0.1510 oh         1 JMQ      -0.567800
     16 C3           3.6040     0.4470    -0.0680 c5         1 JMQ       0.136100
     17 O3           4.5040     0.9690    -1.0060 oh         1 JMQ      -0.574800
     18 C11          2.5420    -0.4090    -0.7710 c5         1 JMQ       0.226500
     19 C12          3.0240    -1.8260    -1.0300 c3         1 JMQ       0.110400
     20 O5           3.3150    -2.4770     0.1850 oh         1 JMQ      -0.607800
     21 H11         -4.6820     1.3760    -1.8040 hn         1 JMQ       0.327500
     22 H1           0.8280    -2.0390     1.0870 h1         1 JMQ       0.040200
     23 H1A          0.3930    -1.9580    -0.6130 h1         1 JMQ       0.040200
     24 H2          -2.8430     0.8540    -3.0600 h5         1 JMQ       0.047800
     25 H8          -1.1040    -1.3270     2.8350 h4         1 JMQ       0.168000
     26 HN7         -3.3600    -0.2820     2.6410 hn         1 JMQ       0.315700
     27 H6           0.7840     1.1440     1.5420 h1         1 JMQ       0.035700
     28 H1'A         1.9970    -0.0110     2.0860 h1         1 JMQ       0.035700
     29 H7           3.3570     1.8790     1.5680 h1         1 JMQ       0.034700
     30 HO2          1.7190     3.0230     0.3160 ho         1 JMQ       0.399000
     31 H3           4.1240    -0.1780     0.6700 h1         1 JMQ       0.045700
     32 HO3          5.2440     1.3610    -0.5330 ho         1 JMQ       0.405000
     33 H4           2.3570     0.0190    -1.7690 h1         1 JMQ       0.090700
     34 H5           2.2670    -2.3740    -1.6060 h1         1 JMQ       0.031200
     35 H5'A         3.9090    -1.7540    -1.6770 h1         1 JMQ       0.031200
     36 HO5          3.6360    -3.3600    -0.0170 ho         1 JMQ       0.403000
@<TRIPOS>BOND
     1     1     4 1   
     2     1    12 1   
     3     1    22 1   
     4     1    23 1   
     5     2     7 1   
     6     2     8 2   
     7     2    24 1   
     8     3     4 2   
     9     3    11 1   
    10     3    25 1   
    11     4     9 1   
    12     5     6 2   
    13     6     7 1   
    14     6    10 1   
    15     7    21 1   
    16     8     9 1   
    17     9    10 2   
    18    10    11 1   
    19    11    26 1   
    20    12    13 1   
    21    12    18 1   
    22    13    14 1   
    23    13    27 1   
    24    13    28 1   
    25    14    15 1   
    26    14    16 1   
    27    14    29 1   
    28    15    30 1   
    29    16    17 1   
    30    16    18 1   
    31    16    31 1   
    32    17    32 1   
    33    18    19 1   
    34    18    33 1   
    35    19    20 1   
    36    19    34 1   
    37    19    35 1   
    38    20    36 1   
@<TRIPOS>SUBSTRUCTURE
     1 JMQ         1 TEMP              0 ****  ****    0 ROOT
