@<TRIPOS>MOLECULE
JMQ
   36    38     1     0     0
SMALL
No Charge or Current Charge


@<TRIPOS>ATOM
      1 C1           0.3740    -1.1990    -0.0900 c3         1 JMQ       0.294100
      2 C2          -3.1530     0.7460    -2.0430 cc         1 JMQ       0.466800
      3 C8          -1.3370    -0.7560     1.7890 cc         1 JMQ      -0.149000
      4 C9          -0.9330    -0.6980     0.4740 cd         1 JMQ      -0.142300
      5 O6          -5.1850     1.1690     0.8100 o          1 JMQ      -0.560000
      6 C6          -4.2370     0.8640     0.1040 c          1 JMQ       0.596600
      7 N1          -4.2070     1.0840    -1.2280 ns         1 JMQ      -0.424400
      8 N3          -2.0250     0.1600    -1.6280 nd         1 JMQ      -0.560100
      9 C4          -1.9760    -0.0960    -0.2600 cd         1 JMQ       0.145400
     10 C5          -3.0120     0.2270     0.5680 cc         1 JMQ      -0.296600
     11 N7          -2.6130    -0.1820     1.8440 na         1 JMQ      -0.073000
     12 N4           1.4650    -0.1990    -0.0070 n3         1 JMQ      -0.764600
     13 C7           1.8910     0.2470     1.3410 c5         1 JMQ       0.159800
     14 C10          2.9310     1.3200     0.9120 c5         1 JMQ       0.126300
     15 O2           2.2770     2.3890     0.2110 oh         1 JMQ      -0.630000
     16 C3           3.8050     0.4530    -0.0540 c5         1 JMQ       0.159300
     17 O3           4.5260     1.2800    -0.9790 oh         1 JMQ      -0.637000
     18 C11          2.7500    -0.5140    -0.7340 c5         1 JMQ       0.226500
     19 C12          3.2330    -2.0080    -0.7430 c3         1 JMQ       0.133600
     20 O5           3.4480    -2.5500     0.5760 oh         1 JMQ      -0.670000
     21 H11         -5.0210     1.5240    -1.6310 hn         1 JMQ       0.327500
     22 H1           0.6550    -2.1120     0.4520 h1         1 JMQ       0.040200
     23 H1A          0.2110    -1.4830    -1.1380 h1         1 JMQ       0.040200
     24 H2          -3.3290     1.0050    -3.0800 h5         1 JMQ       0.047800
     25 H8          -0.8340    -1.1460     2.6650 h4         1 JMQ       0.150000
     26 HN7         -3.1700    -0.0800     2.6890 hn         1 JMQ       0.366000
     27 H6           1.0690     0.6880     1.9200 h1         1 JMQ       0.035700
     28 H1'A         2.3410    -0.5600     1.9340 h1         1 JMQ       0.035700
     29 H7           3.5090     1.7020     1.7640 h1         1 JMQ       0.034700
     30 HO2          1.5200     1.9280    -0.2230 ho         1 JMQ       0.438000
     31 H3           4.5190    -0.1340     0.5420 h1         1 JMQ       0.045700
     32 HO3          4.0130     2.1200    -1.0020 ho         1 JMQ       0.444000
     33 H4           2.6330    -0.2370    -1.7910 h1         1 JMQ       0.090700
     34 H5           2.4900    -2.6110    -1.2810 h1         1 JMQ       0.031200
     35 H5'A         4.1650    -2.0590    -1.3220 h1         1 JMQ       0.031200
     36 HO5          3.7160    -3.4890     0.4630 ho         1 JMQ       0.442000
@<TRIPOS>BOND
     1     1     4 1   
     2     1    12 1   
     3     1    22 1   
     4     1    23 1   
     5     2     7 1   
     6     2     8 2   
     7     2    24 1   
     8     3     4 2   
     9     3    11 1   
    10     3    25 1   
    11     4     9 1   
    12     5     6 2   
    13     6     7 1   
    14     6    10 1   
    15     7    21 1   
    16     8     9 1   
    17     9    10 2   
    18    10    11 1   
    19    11    26 1   
    20    12    13 1   
    21    12    18 1   
    22    13    14 1   
    23    13    27 1   
    24    13    28 1   
    25    14    15 1   
    26    14    16 1   
    27    14    29 1   
    28    15    30 1   
    29    16    17 1   
    30    16    18 1   
    31    16    31 1   
    32    17    32 1   
    33    18    19 1   
    34    18    33 1   
    35    19    20 1   
    36    19    34 1   
    37    19    35 1   
    38    20    36 1   
@<TRIPOS>SUBSTRUCTURE
     1 JMQ         1 TEMP              0 ****  ****    0 ROOT
