@<TRIPOS>MOLECULE
JMR
   35    36     1     0     0
SMALL
No Charge or Current Charge


@<TRIPOS>ATOM
      1 N1           7.6860   -13.1470   -14.3610 n7         1 JMR      -0.927300
      2 N3          12.6970   -13.6620   -15.3220 n2         1 JMR      -0.840100
      3 C4           5.3420   -14.2400   -12.4900 ca         1 JMR      -0.045300
      4 C5           5.2340   -12.8740   -13.1720 c3         1 JMR      -0.284100
      5 C6           8.4640   -14.0850   -13.4840 c5         1 JMR       0.236500
      6 C7           8.8290   -15.3230   -14.3510 c5         1 JMR      -0.106400
      7 C8           9.9780   -14.7860   -15.2410 c5         1 JMR       0.216800
      8 C1           5.5650   -16.7980   -11.3150 ca         1 JMR       0.119000
      9 C2           5.4430   -16.6740   -12.7070 ca         1 JMR      -0.094000
     10 C3           5.3250   -15.4020   -13.2910 ca         1 JMR      -0.111000
     11 S            6.7820   -12.0100   -13.5270 s6         1 JMR       1.208100
     12 O1           6.5380   -10.9210   -14.4740 o          1 JMR      -0.522000
     13 O2           7.4870   -11.7440   -12.2710 o          1 JMR      -0.522000
     14 N2          10.7650   -14.0380   -14.2340 nh         1 JMR      -0.824600
     15 C9           9.8880   -13.4900   -13.1550 c5         1 JMR       0.225800
     16 C11          5.4440   -14.3770   -11.0840 ca         1 JMR       0.005100
     17 Br           5.4130   -12.8580    -9.9100 br         1 JMR      -0.056100
     18 C12          5.5600   -15.6540   -10.5050 ca         1 JMR      -0.075000
     19 H1           6.9340   -13.6660   -14.8060 hn         1 JMR       0.498000
     20 H2          12.5560   -14.6770   -15.2630 hn         1 JMR       0.363400
     21 H3           4.6470   -12.1790   -12.5650 h1         1 JMR       0.114200
     22 H4           4.7280   -12.9720   -14.1390 h1         1 JMR       0.114200
     23 H5           7.9220   -14.3780   -12.5740 h1         1 JMR       0.080700
     24 H6           7.9880   -15.7080   -14.9380 hc         1 JMR       0.059700
     25 H7           9.1810   -16.1470   -13.7200 hc         1 JMR       0.059700
     26 H8           9.5960   -14.1220   -16.0300 h1         1 JMR       0.044200
     27 H9          10.5510   -15.5940   -15.7140 h1         1 JMR       0.044200
     28 H11          5.4370   -17.5640   -13.3320 ha         1 JMR       0.136000
     29 H12          5.2220   -15.3230   -14.3710 ha         1 JMR       0.114000
     30 H13         10.2360   -13.8250   -12.1690 h1         1 JMR       0.062700
     31 H14          9.8660   -12.3910   -13.1390 h1         1 JMR       0.062700
     32 H15          5.6420   -15.7560    -9.4260 ha         1 JMR       0.151000
     33 C10         11.6810   -13.1540   -14.7510 c2         1 JMR       0.646100
     34 Cl           5.7130   -18.3920   -10.5850 cl         1 JMR      -0.182000
     35 H10         11.5250   -12.0860   -14.5710 h5         1 JMR       0.027800
@<TRIPOS>BOND
     1     1     5 1   
     2     1    11 1   
     3     1    19 1   
     4     2    20 1   
     5     2    33 2   
     6     3     4 1   
     7     3    10 ar  
     8     3    16 ar  
     9     4    11 1   
    10     4    21 1   
    11     4    22 1   
    12     5     6 1   
    13     5    15 1   
    14     5    23 1   
    15     6     7 1   
    16     6    24 1   
    17     6    25 1   
    18     7    14 1   
    19     7    26 1   
    20     7    27 1   
    21     8     9 ar  
    22     8    18 ar  
    23     8    34 1   
    24     9    10 ar  
    25     9    28 1   
    26    10    29 1   
    27    11    12 2   
    28    11    13 2   
    29    14    15 1   
    30    14    33 1   
    31    15    30 1   
    32    15    31 1   
    33    16    17 1   
    34    16    18 ar  
    35    18    32 1   
    36    33    35 1   
@<TRIPOS>SUBSTRUCTURE
     1 JMR         1 TEMP              0 ****  ****    0 ROOT
