@<TRIPOS>MOLECULE
JMR
   35    36     1     0     0
SMALL
abcg2


@<TRIPOS>ATOM
      1 N1           7.7540   -13.2390   -14.1110 n7         1 JMR      -0.927300
      2 N3          12.3250   -13.2060   -15.9350 n2         1 JMR      -0.840100
      3 C4           5.2210   -14.1920   -12.5040 ca         1 JMR      -0.045300
      4 C5           5.1680   -12.8940   -13.2380 c3         1 JMR      -0.284100
      5 C6           8.5850   -14.1940   -13.3790 c5         1 JMR       0.236500
      6 C7           8.8990   -15.3960   -14.2680 c5         1 JMR      -0.106400
      7 C8          10.0520   -14.9220   -15.1550 c5         1 JMR       0.216800
      8 C1           5.4850   -16.6690   -11.2470 ca         1 JMR       0.119000
      9 C2           5.5710   -16.5950   -12.6270 ca         1 JMR      -0.094000
     10 C3           5.4330   -15.3600   -13.2340 ca         1 JMR      -0.111000
     11 S            6.8100   -12.1420   -13.3580 s6         1 JMR       1.208100
     12 O1           6.6600   -10.9790   -14.2160 o          1 JMR      -0.522000
     13 O2           7.3530   -11.9890   -12.0160 o          1 JMR      -0.522000
     14 N2          10.6570   -13.8520   -14.3830 nh         1 JMR      -0.824600
     15 C9           9.9780   -13.6280   -13.1210 c5         1 JMR       0.225800
     16 C11          5.1200   -14.3120   -11.1170 ca         1 JMR       0.005100
     17 BR           4.7670   -12.8150   -10.0270 br         1 JMR      -0.056100
     18 C12          5.2480   -15.5390   -10.4820 ca         1 JMR      -0.075000
     19 H1           7.4980   -13.4510   -15.0680 hn         1 JMR       0.498000
     20 H2          12.0010   -13.9900   -16.4960 hn         1 JMR       0.363400
     21 H3           4.5220   -12.1460   -12.7770 h1         1 JMR       0.114200
     22 H4           4.8320   -13.0370   -14.2660 h1         1 JMR       0.114200
     23 H5           8.0990   -14.5000   -12.4530 h1         1 JMR       0.080700
     24 H6           8.0410   -15.7480   -14.8410 hc         1 JMR       0.059700
     25 H7           9.2240   -16.2180   -13.6300 hc         1 JMR       0.059700
     26 H8           9.6980   -14.5460   -16.1210 h1         1 JMR       0.044200
     27 H9          10.7600   -15.7290   -15.3610 h1         1 JMR       0.044200
     28 H11          5.7420   -17.4820   -13.2220 ha         1 JMR       0.136000
     29 H12          5.4960   -15.2970   -14.3130 ha         1 JMR       0.114000
     30 H13         10.4510   -14.1770   -12.3000 h1         1 JMR       0.062700
     31 H14          9.9610   -12.5720   -12.8570 h1         1 JMR       0.062700
     32 H15          5.1650   -15.6190    -9.4060 ha         1 JMR       0.151000
     33 C10         11.6740   -13.0970   -14.8410 c2         1 JMR       0.646100
     34 CL           5.6630   -18.1950   -10.4570 cl         1 JMR      -0.182000
     35 H10         11.9510   -12.2920   -14.1600 h5         1 JMR       0.027800
@<TRIPOS>BOND
     1     1     5 1   
     2     1    11 1   
     3     1    19 1   
     4     2    20 1   
     5     2    33 2   
     6     3     4 1   
     7     3    10 ar  
     8     3    16 ar  
     9     4    11 1   
    10     4    21 1   
    11     4    22 1   
    12     5     6 1   
    13     5    15 1   
    14     5    23 1   
    15     6     7 1   
    16     6    24 1   
    17     6    25 1   
    18     7    14 1   
    19     7    26 1   
    20     7    27 1   
    21     8     9 ar  
    22     8    18 ar  
    23     8    34 1   
    24     9    10 ar  
    25     9    28 1   
    26    10    29 1   
    27    11    12 2   
    28    11    13 2   
    29    14    15 1   
    30    14    33 1   
    31    15    30 1   
    32    15    31 1   
    33    16    17 1   
    34    16    18 ar  
    35    18    32 1   
    36    33    35 1   
@<TRIPOS>SUBSTRUCTURE
     1 JMR         1 TEMP              0 ****  ****    0 ROOT
