@<TRIPOS>MOLECULE
JMS
   29    30     1     0     0
SMALL
bcc


@<TRIPOS>ATOM
      1 OXT         -1.2250    -0.8260     2.5120 o          1 JMS      -0.816300
      2 C7          -0.9510    -1.0720     1.3230 c          1 JMS       0.922200
      3 OH           0.0010    -1.7440     0.8890 o          1 JMS      -0.816300
      4 C1          -1.9320    -0.5620     0.2760 ca         1 JMS      -0.145600
      5 C6          -3.2890    -0.7950     0.4890 ca         1 JMS      -0.092000
      6 C5          -4.2450    -0.5330    -0.4810 ca         1 JMS      -0.178000
      7 C4          -3.8440     0.0100    -1.6960 ca         1 JMS      -0.141000
      8 C3          -2.5100     0.3110    -1.9060 ca         1 JMS      -0.189000
      9 C2          -1.5470     0.0310    -0.9330 ca         1 JMS       0.177600
     10 N           -0.2270     0.3870    -1.2310 nu         1 JMS      -0.649000
     11 C1B          0.7610     0.6980    -0.3260 ca         1 JMS       0.245600
     12 C2B          2.0460     0.1490    -0.4380 ca         1 JMS       0.008400
     13 CL1          2.3220    -1.0100    -1.6980 cl         1 JMS      -0.135400
     14 C3B          3.0970     0.4710     0.4110 ca         1 JMS      -0.046300
     15 C7B          4.4570    -0.1360     0.2530 c3         1 JMS      -0.036800
     16 C4B          2.8360     1.3700     1.4420 ca         1 JMS      -0.161000
     17 C5B          1.5870     1.9450     1.5880 ca         1 JMS      -0.088000
     18 C6B          0.5740     1.6320     0.6990 ca         1 JMS       0.011400
     19 CL2         -0.9280     2.4800     0.8340 cl         1 JMS      -0.107400
     20 H2          -3.5980    -1.2260     1.4340 ha         1 JMS       0.138000
     21 H3          -5.2880    -0.7510    -0.2930 ha         1 JMS       0.105000
     22 H4          -4.5710     0.2240    -2.4690 ha         1 JMS       0.101000
     23 H5          -2.2000     0.7820    -2.8320 ha         1 JMS       0.106000
     24 H6           0.0880     0.1320    -2.1530 hn         1 JMS       0.424800
     25 H7           4.8820     0.0800    -0.7290 hc         1 JMS       0.037033
     26 H8           5.1390     0.2530     1.0070 hc         1 JMS       0.037033
     27 H9           4.4270    -1.2220     0.3570 hc         1 JMS       0.037033
     28 H10          3.6280     1.6340     2.1310 ha         1 JMS       0.118000
     29 H11          1.4070     2.6610     2.3780 ha         1 JMS       0.134000
@<TRIPOS>BOND
     1     1     2 1   
     2     2     3 1   
     3     2     4 1   
     4     4     5 ar  
     5     4     9 ar  
     6     5     6 ar  
     7     5    20 1   
     8     6     7 ar  
     9     6    21 1   
    10     7     8 ar  
    11     7    22 1   
    12     8     9 ar  
    13     8    23 1   
    14     9    10 1   
    15    10    11 1   
    16    10    24 1   
    17    11    12 ar  
    18    11    18 ar  
    19    12    13 1   
    20    12    14 ar  
    21    14    15 1   
    22    14    16 ar  
    23    15    25 1   
    24    15    26 1   
    25    15    27 1   
    26    16    17 ar  
    27    16    28 1   
    28    17    18 ar  
    29    17    29 1   
    30    18    19 1   
@<TRIPOS>SUBSTRUCTURE
     1 JMS         1 TEMP              0 ****  ****    0 ROOT
