@<TRIPOS>MOLECULE
JMS
   29    30     1     0     0
SMALL
No Charge or Current Charge


@<TRIPOS>ATOM
      1 OXT         -1.4170    -0.6560     2.5520 o          1 JMS      -0.711000
      2 C7          -1.1660    -1.0580     1.4240 c          1 JMS       0.711600
      3 OH          -0.3140    -1.9040     1.1900 o          1 JMS      -0.711000
      4 C1          -2.0770    -0.6290     0.3100 ca         1 JMS      -0.145600
      5 C6          -3.4610    -0.8800     0.4420 ca         1 JMS      -0.074000
      6 C5          -4.3490    -0.5550    -0.5950 ca         1 JMS      -0.160000
      7 C4          -3.8640     0.0170    -1.7790 ca         1 JMS      -0.123000
      8 C3          -2.4910     0.2770    -1.9140 ca         1 JMS      -0.171000
      9 C2          -1.5920    -0.0220    -0.8740 ca         1 JMS       0.316000
     10 N           -0.2480     0.2950    -1.0960 nu         1 JMS      -0.981000
     11 C1B          0.8140     0.6820    -0.2410 ca         1 JMS       0.384000
     12 C2B          2.1120     0.1490    -0.4620 ca         1 JMS       0.100000
     13 Cl1          2.3840    -0.9890    -1.8010 cl         1 JMS      -0.227000
     14 C3B          3.1940     0.5110     0.3740 ca         1 JMS      -0.046300
     15 C7B          4.5890    -0.0670     0.1540 c3         1 JMS      -0.036800
     16 C4B          2.9820     1.4210     1.4250 ca         1 JMS      -0.143000
     17 C5B          1.7130     1.9800     1.6340 ca         1 JMS      -0.070000
     18 C6B          0.6330     1.6250     0.8100 ca         1 JMS       0.103000
     19 Cl2         -0.9100     2.4520     1.0870 cl         1 JMS      -0.199000
     20 H2          -3.8430    -1.3440     1.3490 ha         1 JMS       0.120000
     21 H3          -5.4120    -0.7570    -0.4840 ha         1 JMS       0.087000
     22 H4          -4.5490     0.2630    -2.5870 ha         1 JMS       0.083000
     23 H5          -2.1260     0.7310    -2.8310 ha         1 JMS       0.088000
     24 H6           0.0660     0.0710    -2.0410 hn         1 JMS       0.480000
     25 H7           4.9720     0.1960    -0.8400 hc         1 JMS       0.037033
     26 H8           5.3070     0.3100     0.8910 hc         1 JMS       0.037033
     27 H9           4.5800    -1.1600     0.2350 hc         1 JMS       0.037033
     28 H10          3.8050     1.7110     2.0740 ha         1 JMS       0.100000
     29 H11          1.5660     2.7020     2.4340 ha         1 JMS       0.116000
@<TRIPOS>BOND
     1     1     2 1   
     2     2     3 1   
     3     2     4 1   
     4     4     5 ar  
     5     4     9 ar  
     6     5     6 ar  
     7     5    20 1   
     8     6     7 ar  
     9     6    21 1   
    10     7     8 ar  
    11     7    22 1   
    12     8     9 ar  
    13     8    23 1   
    14     9    10 1   
    15    10    11 1   
    16    10    24 1   
    17    11    12 ar  
    18    11    18 ar  
    19    12    13 1   
    20    12    14 ar  
    21    14    15 1   
    22    14    16 ar  
    23    15    25 1   
    24    15    26 1   
    25    15    27 1   
    26    16    17 ar  
    27    16    28 1   
    28    17    18 ar  
    29    17    29 1   
    30    18    19 1   
@<TRIPOS>SUBSTRUCTURE
     1 JMS         1 TEMP              0 ****  ****    0 ROOT
