@<TRIPOS>MOLECULE
JMT
   46    50     1     0     0
SMALL
No Charge or Current Charge


@<TRIPOS>ATOM
      1 C1           2.5270     1.2870    -1.5550 c3         1 JMT       0.251000
      2 C3           3.6330     1.3590    -0.5310 cc         1 JMT      -0.162400
      3 C11          4.3380    -1.1080    -0.3220 ca         1 JMT      -0.154000
      4 C12         -2.8770    -0.1070    -0.1030 cc         1 JMT       0.655100
      5 C16         -0.5220     0.3720     0.6630 c6         1 JMT       0.217800
      6 C17         -0.9330    -0.4430    -1.6690 c6         1 JMT       0.217800
      7 C18         -4.9860    -0.6400    -0.4530 ca         1 JMT       0.147400
      8 C19         -5.0770    -0.2800     0.8760 ca         1 JMT      -0.194000
      9 C20          0.7040     1.1780     0.1310 c6         1 JMT       0.154800
     10 C21          0.3020     0.3870    -2.1420 c6         1 JMT       0.154800
     11 C22         -6.1330    -1.0710    -1.1390 ca         1 JMT      -0.082000
     12 C23         -6.2890    -0.3280     1.5810 ca         1 JMT      -0.061000
     13 C24         -7.3660    -1.1310    -0.4590 ca         1 JMT      -0.100000
     14 C25         -7.4440    -0.7600     0.9000 ca         1 JMT      -0.124000
     15 N2           1.3310     0.5560    -1.0750 n3         1 JMT      -0.722600
     16 C4           4.4070     0.2610    -0.0240 ca         1 JMT      -0.044800
     17 C5           5.3040     0.7610     0.8770 ca         1 JMT      -0.085200
     18 N6           5.1660     2.1320     0.9960 na         1 JMT      -0.218700
     19 C7           4.1200     2.4950     0.1130 cd         1 JMT      -0.150100
     20 C8           6.2080    -0.0740     1.5500 ca         1 JMT      -0.096000
     21 C9           6.1660    -1.4570     1.2710 ca         1 JMT      -0.116000
     22 C10          5.2340    -1.9720     0.3390 ca         1 JMT       0.106100
     23 N13         -1.5370     0.0840    -0.4010 nh         1 JMT      -0.724600
     24 N14         -3.7290    -0.5480    -1.0370 nd         1 JMT      -0.642100
     25 S15         -3.5310     0.2240     1.5280 ss         1 JMT      -0.045200
     26 O26          5.2070    -3.3120     0.0840 oh         1 JMT      -0.541100
     27 H1           2.2510     2.3090    -1.8490 h1         1 JMT       0.035700
     28 H2           2.9280     0.7930    -2.4500 h1         1 JMT       0.035700
     29 H3           3.6100    -1.4800    -1.0380 ha         1 JMT       0.131000
     30 H4          -0.1600    -0.5750     1.0900 h1         1 JMT       0.059200
     31 H5          -0.9580     0.9500     1.4890 h1         1 JMT       0.059200
     32 H6          -1.6630    -0.4470    -2.4910 h1         1 JMT       0.059200
     33 H7          -0.6170    -1.4850    -1.5180 h1         1 JMT       0.059200
     34 H8           0.3710     2.2000    -0.1040 h1         1 JMT       0.045450
     35 H9           1.4350     1.2620     0.9480 h1         1 JMT       0.045450
     36 H10          0.7400    -0.1120    -3.0180 h1         1 JMT       0.045450
     37 H11         -0.0530     1.3720    -2.4810 h1         1 JMT       0.045450
     38 H12         -6.0680    -1.3560    -2.1860 ha         1 JMT       0.128000
     39 H13         -6.3380    -0.0400     2.6290 ha         1 JMT       0.120000
     40 H14         -8.2590    -1.4640    -0.9830 ha         1 JMT       0.113000
     41 H15         -8.3970    -0.8070     1.4240 ha         1 JMT       0.113000
     42 H17          5.7060     2.7520     1.5940 hn         1 JMT       0.351000
     43 H18          3.7990     3.5290     0.0050 h4         1 JMT       0.211000
     44 H19          6.9200     0.3300     2.2660 ha         1 JMT       0.115000
     45 H20          6.8530    -2.1310     1.7760 ha         1 JMT       0.127000
     46 H21          4.5020    -3.4890    -0.5760 ho         1 JMT       0.461000
@<TRIPOS>BOND
     1     1     2 1   
     2     1    15 1   
     3     1    27 1   
     4     1    28 1   
     5     2    16 1   
     6     2    19 2   
     7     3    16 ar  
     8     3    22 ar  
     9     3    29 1   
    10     4    23 1   
    11     4    24 2   
    12     4    25 1   
    13     5     9 1   
    14     5    23 1   
    15     5    30 1   
    16     5    31 1   
    17     6    10 1   
    18     6    23 1   
    19     6    32 1   
    20     6    33 1   
    21     7     8 ar  
    22     7    11 ar  
    23     7    24 1   
    24     8    12 ar  
    25     8    25 1   
    26     9    15 1   
    27     9    34 1   
    28     9    35 1   
    29    10    15 1   
    30    10    36 1   
    31    10    37 1   
    32    11    13 ar  
    33    11    38 1   
    34    12    14 ar  
    35    12    39 1   
    36    13    14 ar  
    37    13    40 1   
    38    14    41 1   
    39    16    17 ar  
    40    17    18 1   
    41    17    20 ar  
    42    18    19 1   
    43    18    42 1   
    44    19    43 1   
    45    20    21 ar  
    46    20    44 1   
    47    21    22 ar  
    48    21    45 1   
    49    22    26 1   
    50    26    46 1   
@<TRIPOS>SUBSTRUCTURE
     1 JMT         1 TEMP              0 ****  ****    0 ROOT
