@<TRIPOS>MOLECULE
JMT
   46    50     1     0     0
SMALL
bcc


@<TRIPOS>ATOM
      1 C1           2.4820     1.5260    -1.6090 c3         1 JMT       0.251000
      2 C3           3.6070     1.4530    -0.6330 cc         1 JMT      -0.162400
      3 C11          3.7800    -1.0760    -0.0420 ca         1 JMT      -0.172000
      4 C12         -2.6270    -0.1490    -0.1970 cc         1 JMT       0.655100
      5 C16         -0.3480     0.3280     0.5400 c6         1 JMT       0.217800
      6 C17         -0.8310    -0.1960    -1.8050 c6         1 JMT       0.217800
      7 C18         -4.7340    -0.7290    -0.4700 ca         1 JMT       0.147400
      8 C19         -4.7820    -0.5050     0.9160 ca         1 JMT      -0.067100
      9 C20          0.7570     1.2520     0.0650 c6         1 JMT       0.154800
     10 C21          0.2940     0.7390    -2.1990 c6         1 JMT       0.154800
     11 C22         -5.8980    -1.1270    -1.1260 ca         1 JMT      -0.100000
     12 C23         -5.9440    -0.6670     1.6530 ca         1 JMT      -0.079000
     13 C24         -7.0640    -1.2920    -0.3960 ca         1 JMT      -0.118000
     14 C25         -7.0920    -1.0650     0.9810 ca         1 JMT      -0.142000
     15 N2           1.3180     0.7720    -1.1780 n3         1 JMT      -0.722600
     16 C4           4.1360     0.2790    -0.0070 ca         1 JMT      -0.044800
     17 C5           5.2210     0.6940     0.7930 ca         1 JMT      -0.085200
     18 N6           5.3380     2.0500     0.6590 na         1 JMT      -0.168400
     19 C7           4.3690     2.4990    -0.1870 cd         1 JMT      -0.100100
     20 C8           5.9630    -0.2150     1.5430 ca         1 JMT      -0.114000
     21 C9           5.6060    -1.5470     1.4880 ca         1 JMT      -0.134000
     22 C10          4.5190    -1.9760     0.7020 ca         1 JMT       0.106100
     23 N13         -1.3530     0.1600    -0.4940 nh         1 JMT      -0.724600
     24 N14         -3.5140    -0.5310    -1.0620 nd         1 JMT      -0.642100
     25 S15         -3.2040    -0.0260     1.4710 ss         1 JMT      -0.172100
     26 O26          4.2440    -3.3060     0.7230 oh         1 JMT      -0.502100
     27 H1           2.2400     2.5850    -1.8050 h1         1 JMT       0.035700
     28 H2           2.7960     1.1030    -2.5700 h1         1 JMT       0.035700
     29 H3           2.9240    -1.3980    -0.6250 ha         1 JMT       0.149000
     30 H4           0.0750    -0.6430     0.8210 h1         1 JMT       0.059200
     31 H5          -0.7950     0.7710     1.4310 h1         1 JMT       0.059200
     32 H6          -1.6320    -0.1340    -2.5370 h1         1 JMT       0.059200
     33 H7          -0.4660    -1.2300    -1.7890 h1         1 JMT       0.059200
     34 H8           0.3600     2.2770    -0.0310 h1         1 JMT       0.045450
     35 H9           1.5310     1.2720     0.8330 h1         1 JMT       0.045450
     36 H10          0.7260     0.3730    -3.1330 h1         1 JMT       0.045450
     37 H11         -0.1170     1.7420    -2.4030 h1         1 JMT       0.045450
     38 H12         -5.8810    -1.3010    -2.1940 ha         1 JMT       0.146000
     39 H13         -5.9620    -0.4910     2.7200 ha         1 JMT       0.138000
     40 H14         -7.9690    -1.6010    -0.9030 ha         1 JMT       0.131000
     41 H15         -8.0120    -1.2020     1.5320 ha         1 JMT       0.131000
     42 H17          6.0230     2.6290     1.1130 hn         1 JMT       0.300700
     43 H18          4.2870     3.5490    -0.4230 h4         1 JMT       0.161000
     44 H19          6.7980     0.1040     2.1540 ha         1 JMT       0.133000
     45 H20          6.1610    -2.2780     2.0630 ha         1 JMT       0.145000
     46 H21          3.4980    -3.4940     0.1440 ho         1 JMT       0.422000
@<TRIPOS>BOND
     1     1     2 1   
     2     1    15 1   
     3     1    27 1   
     4     1    28 1   
     5     2    16 1   
     6     2    19 2   
     7     3    16 ar  
     8     3    22 ar  
     9     3    29 1   
    10     4    23 1   
    11     4    24 2   
    12     4    25 1   
    13     5     9 1   
    14     5    23 1   
    15     5    30 1   
    16     5    31 1   
    17     6    10 1   
    18     6    23 1   
    19     6    32 1   
    20     6    33 1   
    21     7     8 ar  
    22     7    11 ar  
    23     7    24 1   
    24     8    12 ar  
    25     8    25 1   
    26     9    15 1   
    27     9    34 1   
    28     9    35 1   
    29    10    15 1   
    30    10    36 1   
    31    10    37 1   
    32    11    13 ar  
    33    11    38 1   
    34    12    14 ar  
    35    12    39 1   
    36    13    14 ar  
    37    13    40 1   
    38    14    41 1   
    39    16    17 ar  
    40    17    18 1   
    41    17    20 ar  
    42    18    19 1   
    43    18    42 1   
    44    19    43 1   
    45    20    21 ar  
    46    20    44 1   
    47    21    22 ar  
    48    21    45 1   
    49    22    26 1   
    50    26    46 1   
@<TRIPOS>SUBSTRUCTURE
     1 JMT         1 TEMP              0 ****  ****    0 ROOT
