@<TRIPOS>MOLECULE
JMU
   55    59     1     0     0
SMALL
bcc


@<TRIPOS>ATOM
      1 C5          92.1820    -9.3800    14.1520 c          1 JMU       0.601600
      2 C7          95.2850   -10.0770    12.3790 cc         1 JMU      -0.074000
      3 C8          93.0790   -10.5690    11.5460 cd         1 JMU      -0.135000
      4 C10         93.8580    -9.9360    12.4730 cc         1 JMU       0.112600
      5 N12         90.9620    -8.7700    16.1090 nc         1 JMU      -0.458800
      6 C15         91.4940    -6.6690    16.5420 cc         1 JMU      -0.111300
      7 C26         91.6810    -4.2070    14.7190 c6         1 JMU       0.059500
      8 C28         93.5860    -3.2310    12.8700 c6         1 JMU       0.109400
      9 C1          92.1970    -7.0220    15.4080 cd         1 JMU      -0.313900
     10 C2          91.8290    -8.3760    15.1930 cd         1 JMU       0.298800
     11 C3          93.6810   -11.3300    10.5270 cd         1 JMU       0.010700
     12 N4          95.0670   -11.4110    10.4680 na         1 JMU       0.014700
     13 N6          93.1360   -12.0120     9.5490 nc         1 JMU      -0.291600
     14 C9          93.2000    -6.1920    14.7090 c          1 JMU       0.730700
     15 C11         94.1700   -12.5470     8.8390 cc         1 JMU       0.139400
     16 N13         90.7860    -7.7420    16.9140 na         1 JMU       0.131400
     17 C14         95.8580   -10.8010    11.3730 cd         1 JMU      -0.014300
     18 C16         95.3790   -12.1920     9.3850 cd         1 JMU      -0.224100
     19 N17         93.3530    -9.1500    13.5010 ns         1 JMU      -0.491100
     20 N18         92.9650    -4.8780    14.5650 n          1 JMU      -0.465800
     21 N20         96.8400    -9.0370    14.1470 n1         1 JMU      -0.344800
     22 O21         91.4670   -10.3400    13.9470 o          1 JMU      -0.552100
     23 O22         94.2500    -6.7120    14.3160 o          1 JMU      -0.626100
     24 C23         93.9320   -13.3880     7.6660 ca         1 JMU      -0.023800
     25 O24         92.3760    -2.5410    13.0860 os         1 JMU      -0.392600
     26 C25         94.0200    -3.9790    14.1170 c6         1 JMU       0.059500
     27 C27         91.3530    -3.4360    13.4490 c6         1 JMU       0.109400
     28 C29         92.6350   -13.7930     7.3480 ca         1 JMU      -0.104500
     29 C30         94.9840   -13.8020     6.8470 ca         1 JMU      -0.104500
     30 C31         92.3980   -14.5950     6.2410 ca         1 JMU      -0.135500
     31 C32         94.7450   -14.6020     5.7410 ca         1 JMU      -0.135500
     32 C33         93.4510   -15.0020     5.4320 ca         1 JMU      -0.122000
     33 C34         89.8940    -7.8520    18.0470 c3         1 JMU       0.037600
     34 H1          92.0030   -10.4940    11.5490 ha         1 JMU       0.186000
     35 H2          91.4690    -5.7510    17.1080 h4         1 JMU       0.180000
     36 H3          90.8870    -4.9280    14.8890 h1         1 JMU       0.066450
     37 H4          91.7190    -3.5340    15.5800 h1         1 JMU       0.066450
     38 H5          93.4870    -3.9360    12.0330 h1         1 JMU       0.058450
     39 H6          94.3440    -2.4930    12.6040 h1         1 JMU       0.058450
     40 H7          96.9270   -10.9260    11.2690 h4         1 JMU       0.172000
     41 H8          96.3990   -12.4200     9.1260 h4         1 JMU       0.184000
     42 H9          93.8980    -8.3340    13.8120 hn         1 JMU       0.380500
     43 H10         94.2250    -3.2670    14.9220 h1         1 JMU       0.066450
     44 H11         94.9300    -4.5390    13.9210 h1         1 JMU       0.066450
     45 H12         90.4440    -2.8540    13.6080 h1         1 JMU       0.058450
     46 H13         91.1610    -4.1530    12.6390 h1         1 JMU       0.058450
     47 H14         91.8090   -13.4810     7.9730 ha         1 JMU       0.139500
     48 H15         96.0000   -13.4960     7.0660 ha         1 JMU       0.139500
     49 H16         91.3860   -14.9020     6.0100 ha         1 JMU       0.129500
     50 H17         95.5730   -14.9110     5.1160 ha         1 JMU       0.129500
     51 H18         93.2650   -15.6270     4.5680 ha         1 JMU       0.129000
     52 H19         88.8800    -8.0470    17.7040 h1         1 JMU       0.065700
     53 H20         90.2180    -8.6610    18.6980 h1         1 JMU       0.065700
     54 H21         89.9110    -6.9180    18.6010 h1         1 JMU       0.065700
     55 C19         96.1430    -9.4970    13.3540 cg         1 JMU       0.236800
@<TRIPOS>BOND
     1     1    10 1   
     2     1    19 1   
     3     1    22 2   
     4     2     4 1   
     5     2    17 2   
     6     2    55 1   
     7     3     4 2   
     8     3    11 1   
     9     3    34 1   
    10     4    19 1   
    11     5    10 2   
    12     5    16 1   
    13     6     9 2   
    14     6    16 1   
    15     6    35 1   
    16     7    20 1   
    17     7    27 1   
    18     7    36 1   
    19     7    37 1   
    20     8    25 1   
    21     8    26 1   
    22     8    38 1   
    23     8    39 1   
    24     9    10 1   
    25     9    14 1   
    26    11    12 1   
    27    11    13 2   
    28    12    17 1   
    29    12    18 1   
    30    13    15 1   
    31    14    20 1   
    32    14    23 2   
    33    15    18 2   
    34    15    24 1   
    35    16    33 1   
    36    17    40 1   
    37    18    41 1   
    38    19    42 1   
    39    20    26 1   
    40    21    55 3   
    41    24    28 ar  
    42    24    29 ar  
    43    25    27 1   
    44    26    43 1   
    45    26    44 1   
    46    27    45 1   
    47    27    46 1   
    48    28    30 ar  
    49    28    47 1   
    50    29    31 ar  
    51    29    48 1   
    52    30    32 ar  
    53    30    49 1   
    54    31    32 ar  
    55    31    50 1   
    56    32    51 1   
    57    33    52 1   
    58    33    53 1   
    59    33    54 1   
@<TRIPOS>SUBSTRUCTURE
     1 JMU         1 TEMP              0 ****  ****    0 ROOT
