@<TRIPOS>MOLECULE
JMU
   55    59     1     0     0
SMALL
No Charge or Current Charge


@<TRIPOS>ATOM
      1 C5          92.2870    -9.5740    14.2990 c          1 JMU       0.534600
      2 C7          95.2330    -9.7690    11.9420 cc         1 JMU      -0.074000
      3 C8          93.0260   -10.8040    11.6260 cd         1 JMU      -0.117000
      4 C10         93.8400    -9.9490    12.3550 cc         1 JMU       0.112600
      5 N12         90.8630    -8.8610    16.1600 nc         1 JMU      -0.458800
      6 C15         91.3760    -6.6480    16.4930 cc         1 JMU      -0.144000
      7 C26         91.6960    -4.1320    14.8600 c6         1 JMU       0.059500
      8 C28         93.9000    -3.0850    13.2840 c6         1 JMU       0.132600
      9 C1          92.1310    -7.1110    15.4390 cd         1 JMU      -0.248600
     10 C2          91.8000    -8.5080    15.2810 cd         1 JMU       0.233500
     11 C3          93.6230   -11.4740    10.5240 cd         1 JMU      -0.040000
     12 N4          94.9320   -11.3000    10.1870 na         1 JMU       0.116100
     13 N6          93.0560   -12.3130     9.6760 nc         1 JMU      -0.291600
     14 C9          93.1330    -6.2540    14.7300 c          1 JMU       0.663700
     15 C11         94.0660   -12.6520     8.7990 cc         1 JMU       0.139400
     16 N13         90.6160    -7.7300    16.8860 na         1 JMU       0.152800
     17 C14         95.7940   -10.4370    10.8530 cd         1 JMU      -0.047000
     18 C16         95.2660   -12.0280     9.0750 cd         1 JMU      -0.274100
     19 N17         93.3160    -9.2300    13.4350 ns         1 JMU      -0.424100
     20 N18         93.0130    -4.8480    14.8580 n          1 JMU      -0.398800
     21 N20         96.8080    -8.2240    13.3020 n1         1 JMU      -0.434000
     22 O21         91.8100   -10.7050    14.2790 o          1 JMU      -0.552100
     23 O22         94.0500    -6.7270    14.0830 o          1 JMU      -0.626100
     24 C23         93.9040   -13.5610     7.6520 ca         1 JMU      -0.023800
     25 O24         92.6580    -2.3650    13.4370 os         1 JMU      -0.439000
     26 C25         94.1620    -3.9440    14.5450 c6         1 JMU       0.059500
     27 C27         91.5180    -3.2350    13.6050 c6         1 JMU       0.132600
     28 C29         92.6110   -13.9530     7.2370 ca         1 JMU      -0.086500
     29 C30         95.0220   -14.1020     6.9750 ca         1 JMU      -0.086500
     30 C31         92.4390   -14.8390     6.1590 ca         1 JMU      -0.117500
     31 C32         94.8480   -14.9880     5.8970 ca         1 JMU      -0.117500
     32 C33         93.5570   -15.3550     5.4860 ca         1 JMU      -0.104000
     33 C34         89.6320    -7.7560    17.9750 c3         1 JMU       0.066900
     34 H1          91.9760   -10.9480    11.8480 ha         1 JMU       0.168000
     35 H2          91.3290    -5.6910    16.9980 h4         1 JMU       0.162000
     36 H3          90.8580    -4.8410    14.8670 h1         1 JMU       0.066450
     37 H4          91.6200    -3.5130    15.7660 h1         1 JMU       0.066450
     38 H5          93.8440    -3.7280    12.3930 h1         1 JMU       0.058450
     39 H6          94.7190    -2.3670    13.1400 h1         1 JMU       0.058450
     40 H7          96.8160   -10.3510    10.5030 h4         1 JMU       0.154000
     41 H8          96.2410   -12.0330     8.6050 h4         1 JMU       0.234000
     42 H9          93.7700    -8.3510    13.6680 hn         1 JMU       0.380500
     43 H10         94.3280    -3.2760    15.4020 h1         1 JMU       0.066450
     44 H11         95.0880    -4.5190    14.4070 h1         1 JMU       0.066450
     45 H12         90.6090    -2.6250    13.7050 h1         1 JMU       0.058450
     46 H13         91.4100    -3.8640    12.7090 h1         1 JMU       0.058450
     47 H14         91.7310   -13.5670     7.7460 ha         1 JMU       0.121500
     48 H15         96.0330   -13.8480     7.2800 ha         1 JMU       0.121500
     49 H16         91.4370   -15.1260     5.8470 ha         1 JMU       0.111500
     50 H17         95.7160   -15.3940     5.3830 ha         1 JMU       0.111500
     51 H18         93.4240   -16.0420     4.6530 ha         1 JMU       0.111000
     52 H19         88.6770    -8.1410    17.5970 h1         1 JMU       0.065700
     53 H20         89.9940    -8.4070    18.7800 h1         1 JMU       0.065700
     54 H21         89.4830    -6.7430    18.3670 h1         1 JMU       0.065700
     55 C19         96.0780    -8.9040    12.6970 cg         1 JMU       0.326000
@<TRIPOS>BOND
     1     1    10 1   
     2     1    19 1   
     3     1    22 2   
     4     2     4 1   
     5     2    17 2   
     6     2    55 1   
     7     3     4 2   
     8     3    11 1   
     9     3    34 1   
    10     4    19 1   
    11     5    10 2   
    12     5    16 1   
    13     6     9 2   
    14     6    16 1   
    15     6    35 1   
    16     7    20 1   
    17     7    27 1   
    18     7    36 1   
    19     7    37 1   
    20     8    25 1   
    21     8    26 1   
    22     8    38 1   
    23     8    39 1   
    24     9    10 1   
    25     9    14 1   
    26    11    12 1   
    27    11    13 2   
    28    12    17 1   
    29    12    18 1   
    30    13    15 1   
    31    14    20 1   
    32    14    23 2   
    33    15    18 2   
    34    15    24 1   
    35    16    33 1   
    36    17    40 1   
    37    18    41 1   
    38    19    42 1   
    39    20    26 1   
    40    21    55 3   
    41    24    28 ar  
    42    24    29 ar  
    43    25    27 1   
    44    26    43 1   
    45    26    44 1   
    46    27    45 1   
    47    27    46 1   
    48    28    30 ar  
    49    28    47 1   
    50    29    31 ar  
    51    29    48 1   
    52    30    32 ar  
    53    30    49 1   
    54    31    32 ar  
    55    31    50 1   
    56    32    51 1   
    57    33    52 1   
    58    33    53 1   
    59    33    54 1   
@<TRIPOS>SUBSTRUCTURE
     1 JMU         1 TEMP              0 ****  ****    0 ROOT
