@<TRIPOS>MOLECULE
JMV
   18    18     1     0     0
SMALL
abcg2


@<TRIPOS>ATOM
      1 C10          2.2610    -0.1700     0.0110 ca         1 JMV       0.165000
      2 O01         -4.0640    -1.4190     0.0980 o          1 JMV      -0.710500
      3 C02         -3.4460    -0.3380     0.0350 c          1 JMV       0.729000
      4 O03         -3.9100     0.8100    -0.0030 o          1 JMV      -0.710500
      5 C04         -1.9190    -0.5110     0.0010 c3         1 JMV      -0.000400
      6 O05         -1.2730     0.7490    -0.0350 os         1 JMV      -0.290100
      7 C06          0.0650     0.7910    -0.0160 ca         1 JMV       0.184100
      8 C07          0.6500     2.0620     0.0030 ca         1 JMV      -0.166000
      9 C08          2.0250     2.1930     0.0260 ca         1 JMV      -0.076000
     10 C09          2.8570     1.0770     0.0310 ca         1 JMV      -0.183000
     11 CL11         3.2620    -1.5890     0.0160 cl         1 JMV      -0.246000
     12 C12          0.8820    -0.3390    -0.0120 ca         1 JMV      -0.217000
     13 H042        -1.6040    -1.0750     0.8870 h1         1 JMV       0.020200
     14 H041        -1.6440    -1.1090    -0.8760 h1         1 JMV       0.020200
     15 H071         0.0140     2.9380     0.0000 ha         1 JMV       0.130000
     16 H081         2.4650     3.1810     0.0420 ha         1 JMV       0.100000
     17 H091         3.9320     1.1820     0.0500 ha         1 JMV       0.112000
     18 H121         0.4700    -1.3380    -0.0280 ha         1 JMV       0.138000
@<TRIPOS>BOND
     1     1    10 ar  
     2     1    11 1   
     3     1    12 ar  
     4     2     3 1   
     5     3     4 1   
     6     3     5 1   
     7     5     6 1   
     8     5    13 1   
     9     5    14 1   
    10     6     7 1   
    11     7     8 ar  
    12     7    12 ar  
    13     8     9 ar  
    14     8    15 1   
    15     9    10 ar  
    16     9    16 1   
    17    10    17 1   
    18    12    18 1   
@<TRIPOS>SUBSTRUCTURE
     1 JMV         1 TEMP              0 ****  ****    0 ROOT
