@<TRIPOS>MOLECULE
JMV
   18    18     1     0     0
SMALL
No Charge or Current Charge


@<TRIPOS>ATOM
      1 C10          2.3220    -0.1840     0.0120 ca         1 JMV       0.165000
      2 O01         -4.1990    -1.4040     0.0150 o          1 JMV      -0.710500
      3 C02         -3.5280    -0.3800     0.0150 c          1 JMV       0.729000
      4 O03         -4.0230     0.7410     0.0140 o          1 JMV      -0.710500
      5 C04         -1.9780    -0.5360     0.0140 c3         1 JMV      -0.000400
      6 O05         -1.2780     0.7320     0.0130 os         1 JMV      -0.290100
      7 C06          0.1000     0.8120     0.0130 ca         1 JMV       0.184100
      8 C07          0.6850     2.0900     0.0120 ca         1 JMV      -0.166000
      9 C08          2.0830     2.2360     0.0120 ca         1 JMV      -0.076000
     10 C09          2.9010     1.0950     0.0110 ca         1 JMV      -0.183000
     11 Cl11         3.3500    -1.6090     0.0110 cl         1 JMV      -0.246000
     12 C12          0.9270    -0.3310     0.0120 ca         1 JMV      -0.217000
     13 H042        -1.7040    -1.1180     0.9030 h1         1 JMV       0.020200
     14 H041        -1.7050    -1.1180    -0.8750 h1         1 JMV       0.020200
     15 H071         0.0490     2.9720     0.0130 ha         1 JMV       0.130000
     16 H081         2.5290     3.2290     0.0110 ha         1 JMV       0.100000
     17 H091         3.9830     1.2010     0.0110 ha         1 JMV       0.112000
     18 H121         0.5080    -1.3320     0.0130 ha         1 JMV       0.138000
@<TRIPOS>BOND
     1     1    10 ar  
     2     1    11 1   
     3     1    12 ar  
     4     2     3 1   
     5     3     4 1   
     6     3     5 1   
     7     5     6 1   
     8     5    13 1   
     9     5    14 1   
    10     6     7 1   
    11     7     8 ar  
    12     7    12 ar  
    13     8     9 ar  
    14     8    15 1   
    15     9    10 ar  
    16     9    16 1   
    17    10    17 1   
    18    12    18 1   
@<TRIPOS>SUBSTRUCTURE
     1 JMV         1 TEMP              0 ****  ****    0 ROOT
