@<TRIPOS>MOLECULE
JMW
   46    50     1     0     0
SMALL
bcc


@<TRIPOS>ATOM
      1 C1           3.2940     1.4180    -1.6900 c3         1 JMW       0.250000
      2 C3           4.4200     1.2530    -0.7260 cc         1 JMW      -0.151400
      3 C11          4.3610    -1.2750    -0.1050 ca         1 JMW      -0.088000
      4 C12         -1.9330     0.3350    -0.1520 cc         1 JMW       0.660100
      5 C16          0.3940     0.5990     0.5420 c6         1 JMW       0.218300
      6 C17         -0.1720     0.0140    -1.7700 c6         1 JMW       0.218300
      7 C18         -4.0910    -0.0200    -0.3810 ca         1 JMW       0.158400
      8 C19         -4.0960     0.2740     0.9930 ca         1 JMW      -0.076100
      9 C20          1.5730     1.3910     0.0100 c6         1 JMW       0.155300
     10 C21          1.0280     0.8220    -2.2220 c6         1 JMW       0.155300
     11 C22         -5.2950    -0.3210    -1.0160 ca         1 JMW      -0.096000
     12 C23         -5.2620     0.2710     1.7390 ca         1 JMW      -0.068000
     13 C24         -6.4530    -0.3210    -0.2600 ca         1 JMW       0.040400
     14 C25         -6.4570    -0.0310     1.1030 ca         1 JMW      -0.138000
     15 N2           2.0660     0.8050    -1.2150 n3         1 JMW      -0.722600
     16 C4           4.8410     0.0410    -0.0900 ca         1 JMW      -0.074800
     17 C5           5.9660     0.3590     0.7010 ca         1 JMW      -0.059200
     18 N6           6.2070     1.6950     0.5510 na         1 JMW      -0.170400
     19 C7           5.2780     2.2260    -0.2960 cd         1 JMW      -0.105100
     20 C8           6.6280    -0.6050     1.4580 ca         1 JMW      -0.137000
     21 C9           6.1440    -1.8970     1.4190 ca         1 JMW      -0.128000
     22 C10          5.0190    -2.2310     0.6430 ca         1 JMW       0.063100
     23 N13         -0.6390     0.4790    -0.4710 nh         1 JMW      -0.723600
     24 N14         -2.8690     0.0140    -0.9920 nd         1 JMW      -0.643100
     25 S15         -2.4720     0.6050     1.5120 ss         1 JMW      -0.160100
     26 CL          -7.9590    -0.6940    -1.0380 cl         1 JMW      -0.112400
     27 O27          4.5950    -3.5390     0.6130 oh         1 JMW      -0.523100
     28 H1           3.1640     2.4900    -1.9170 h1         1 JMW       0.037700
     29 H2           3.5440     0.9330    -2.6390 h1         1 JMW       0.037700
     30 H3           3.4830    -1.5330    -0.6830 ha         1 JMW       0.156000
     31 H4           0.7270    -0.3960     0.8590 h1         1 JMW       0.061200
     32 H5           0.0070     1.1200     1.4190 h1         1 JMW       0.061200
     33 H6          -0.9760     0.1100    -2.4940 h1         1 JMW       0.061200
     34 H7           0.0990    -1.0460    -1.7020 h1         1 JMW       0.061200
     35 H8           1.2720     2.4450    -0.1260 h1         1 JMW       0.045700
     36 H9           2.3580     1.3730     0.7670 h1         1 JMW       0.045700
     37 H10          1.4080     0.3740    -3.1430 h1         1 JMW       0.045700
     38 H11          0.7060     1.8480    -2.4680 h1         1 JMW       0.045700
     39 H12         -5.3110    -0.5470    -2.0740 ha         1 JMW       0.162000
     40 H13         -5.2550     0.4960     2.7970 ha         1 JMW       0.142000
     41 H14         -7.3810    -0.0380     1.6630 ha         1 JMW       0.148000
     42 H16          6.9450     2.2140     0.9970 hn         1 JMW       0.301700
     43 H17          5.2950     3.2770    -0.5410 h4         1 JMW       0.162000
     44 H18          7.4940    -0.3550     2.0590 ha         1 JMW       0.133000
     45 H19          6.6360    -2.6720     1.9930 ha         1 JMW       0.138000
     46 H20          3.9700    -3.6920     1.3300 ho         1 JMW       0.413000
@<TRIPOS>BOND
     1     1     2 1   
     2     1    15 1   
     3     1    28 1   
     4     1    29 1   
     5     2    16 1   
     6     2    19 2   
     7     3    16 ar  
     8     3    22 ar  
     9     3    30 1   
    10     4    23 1   
    11     4    24 2   
    12     4    25 1   
    13     5     9 1   
    14     5    23 1   
    15     5    31 1   
    16     5    32 1   
    17     6    10 1   
    18     6    23 1   
    19     6    33 1   
    20     6    34 1   
    21     7     8 ar  
    22     7    11 ar  
    23     7    24 1   
    24     8    12 ar  
    25     8    25 1   
    26     9    15 1   
    27     9    35 1   
    28     9    36 1   
    29    10    15 1   
    30    10    37 1   
    31    10    38 1   
    32    11    13 ar  
    33    11    39 1   
    34    12    14 ar  
    35    12    40 1   
    36    13    14 ar  
    37    13    26 1   
    38    14    41 1   
    39    16    17 ar  
    40    17    18 1   
    41    17    20 ar  
    42    18    19 1   
    43    18    42 1   
    44    19    43 1   
    45    20    21 ar  
    46    20    44 1   
    47    21    22 ar  
    48    21    45 1   
    49    22    27 1   
    50    27    46 1   
@<TRIPOS>SUBSTRUCTURE
     1 JMW         1 TEMP              0 ****  ****    0 ROOT
