@<TRIPOS>MOLECULE
JMW
   46    50     1     0     0
SMALL
No Charge or Current Charge


@<TRIPOS>ATOM
      1 C1           3.3230     1.1960    -1.6410 c3         1 JMW       0.250000
      2 C3           4.4450     1.1640    -0.6320 cc         1 JMW      -0.151400
      3 C11          4.7700    -1.3640    -0.2630 ca         1 JMW      -0.070000
      4 C12         -2.1770     0.4190    -0.0980 cc         1 JMW       0.660100
      5 C16          0.2270     0.6500     0.6310 c6         1 JMW       0.218300
      6 C17         -0.3030    -0.1530    -1.6810 c6         1 JMW       0.218300
      7 C18         -4.3360     0.1150    -0.4150 ca         1 JMW       0.158400
      8 C19         -4.3710     0.5080     0.9070 ca         1 JMW      -0.203000
      9 C20          1.5240     1.3120     0.0680 c6         1 JMW       0.155300
     10 C21          1.0050     0.5320    -2.1850 c6         1 JMW       0.155300
     11 C22         -5.5300    -0.2010    -1.0810 ca         1 JMW      -0.078000
     12 C23         -5.5720     0.6080     1.6250 ca         1 JMW      -0.050000
     13 C24         -6.7500    -0.1110    -0.3860 ca         1 JMW       0.132000
     14 C25         -6.7740     0.2920     0.9650 ca         1 JMW      -0.120000
     15 N2           2.0620     0.6070    -1.1340 n3         1 JMW      -0.722600
     16 C4           5.0510    -0.0050    -0.0590 ca         1 JMW      -0.074800
     17 C5           6.0290     0.4080     0.8010 ca         1 JMW      -0.059200
     18 N6           6.1040     1.7880     0.8300 na         1 JMW      -0.220700
     19 C7           5.1100     2.2510    -0.0680 cd         1 JMW      -0.155100
     20 C8           6.8050    -0.5110     1.5220 ca         1 JMW      -0.119000
     21 C9           6.5500    -1.8880     1.3370 ca         1 JMW      -0.110000
     22 C10          5.5340    -2.3130     0.4470 ca         1 JMW       0.063100
     23 N13         -0.8290     0.4560    -0.4150 nh         1 JMW      -0.723600
     24 N14         -3.0840     0.0570    -1.0130 nd         1 JMW      -0.643100
     25 S15         -2.7700     0.8520     1.5320 ss         1 JMW      -0.033200
     26 Cl          -8.2560    -0.5040    -1.2070 cl         1 JMW      -0.204000
     27 O27          5.2900    -3.6460     0.2720 oh         1 JMW      -0.562100
     28 H1           3.1550     2.2380    -1.9500 h1         1 JMW       0.037700
     29 H2           3.6560     0.6470    -2.5330 h1         1 JMW       0.037700
     30 H3           3.9840    -1.6750    -0.9460 ha         1 JMW       0.138000
     31 H4           0.4930    -0.3230     1.0690 h1         1 JMW       0.061200
     32 H5          -0.1320     1.2840     1.4540 h1         1 JMW       0.061200
     33 H6          -1.0420    -0.0930    -2.4930 h1         1 JMW       0.061200
     34 H7          -0.0980    -1.2210    -1.5160 h1         1 JMW       0.061200
     35 H8           1.2980     2.3600    -0.1800 h1         1 JMW       0.045700
     36 H9           2.2720     1.3310     0.8740 h1         1 JMW       0.045700
     37 H10          1.3740    -0.0260    -3.0580 h1         1 JMW       0.045700
     38 H11          0.7520     1.5430    -2.5370 h1         1 JMW       0.045700
     39 H12         -5.5110    -0.5120    -2.1210 ha         1 JMW       0.144000
     40 H13         -5.5760     0.9200     2.6680 ha         1 JMW       0.124000
     41 H14         -7.7210     0.3590     1.4950 ha         1 JMW       0.130000
     42 H16          6.7410     2.3550     1.3830 hn         1 JMW       0.352000
     43 H17          4.9480     3.3120    -0.2420 h4         1 JMW       0.212000
     44 H18          7.5820    -0.1740     2.2050 ha         1 JMW       0.115000
     45 H19          7.1410    -2.6170     1.8860 ha         1 JMW       0.120000
     46 H20          5.9070    -4.1580     0.8380 ho         1 JMW       0.452000
@<TRIPOS>BOND
     1     1     2 1   
     2     1    15 1   
     3     1    28 1   
     4     1    29 1   
     5     2    16 1   
     6     2    19 2   
     7     3    16 ar  
     8     3    22 ar  
     9     3    30 1   
    10     4    23 1   
    11     4    24 2   
    12     4    25 1   
    13     5     9 1   
    14     5    23 1   
    15     5    31 1   
    16     5    32 1   
    17     6    10 1   
    18     6    23 1   
    19     6    33 1   
    20     6    34 1   
    21     7     8 ar  
    22     7    11 ar  
    23     7    24 1   
    24     8    12 ar  
    25     8    25 1   
    26     9    15 1   
    27     9    35 1   
    28     9    36 1   
    29    10    15 1   
    30    10    37 1   
    31    10    38 1   
    32    11    13 ar  
    33    11    39 1   
    34    12    14 ar  
    35    12    40 1   
    36    13    14 ar  
    37    13    26 1   
    38    14    41 1   
    39    16    17 ar  
    40    17    18 1   
    41    17    20 ar  
    42    18    19 1   
    43    18    42 1   
    44    19    43 1   
    45    20    21 ar  
    46    20    44 1   
    47    21    22 ar  
    48    21    45 1   
    49    22    27 1   
    50    27    46 1   
@<TRIPOS>SUBSTRUCTURE
     1 JMW         1 TEMP              0 ****  ****    0 ROOT
