@<TRIPOS>MOLECULE
JMY
   32    34     1     0     0
SMALL
No Charge or Current Charge


@<TRIPOS>ATOM
      1 C15          3.1850     1.5300    -0.4420 ca         1 JMY      -0.128000
      2 C17          1.0380     0.4220    -0.6540 ca         1 JMY      -0.167300
      3 C01         -2.1830     2.6970     1.4520 c3         1 JMY      -0.175100
      4 C02         -1.4320     2.1960     0.2170 c          1 JMY       0.613100
      5 O03         -1.0240     2.9880    -0.6210 o          1 JMY      -0.611100
      6 N04         -1.2360     0.8090     0.0650 n          1 JMY      -0.417800
      7 C05         -1.7510    -0.2130     1.0060 c5         1 JMY       0.108000
      8 C06         -1.7870    -1.4890     0.1130 c5         1 JMY      -0.088700
      9 C07         -3.0610    -1.5970    -0.7590 c3         1 JMY       0.166600
     10 O08         -4.2120    -1.7990     0.0700 oh         1 JMY      -0.661000
     11 C09         -0.4910    -1.3270    -0.7300 c5         1 JMY       0.141300
     12 O10          0.6520    -1.7210     0.1060 os         1 JMY      -0.312100
     13 C11          1.5500    -0.6960    -0.0290 ca         1 JMY       0.088100
     14 C12          2.8800    -0.7320     0.4250 ca         1 JMY       0.141000
     15 F13          3.3710    -1.8280     1.0480 f          1 JMY      -0.167000
     16 C14          3.7020     0.3910     0.2160 ca         1 JMY      -0.113000
     17 C16          1.8450     1.5510    -0.8830 ca         1 JMY      -0.046000
     18 C18         -0.4060     0.2220    -1.0130 c5         1 JMY       0.139000
     19 H151         3.8220     2.3970    -0.6080 ha         1 JMY       0.122000
     20 H012        -1.7440     2.2530     2.3520 hc         1 JMY       0.062367
     21 H013        -2.2100     3.7910     1.5100 hc         1 JMY       0.062367
     22 H011        -3.1960     2.2820     1.4440 hc         1 JMY       0.062367
     23 H052        -1.0610    -0.3360     1.8520 h1         1 JMY       0.064200
     24 H051        -2.7440     0.0300     1.4060 h1         1 JMY       0.064200
     25 H061        -1.7480    -2.3990     0.7220 hc         1 JMY       0.097700
     26 H072        -3.1760    -0.6840    -1.3590 h1         1 JMY       0.025700
     27 H071        -2.9460    -2.4410    -1.4520 h1         1 JMY       0.025700
     28 H081        -4.9870    -1.8790    -0.5300 ho         1 JMY       0.449000
     29 H091        -0.4830    -1.9250    -1.6510 h1         1 JMY       0.081700
     30 H141         4.7340     0.3780     0.5570 ha         1 JMY       0.132000
     31 H161         1.4470     2.4280    -1.3880 ha         1 JMY       0.142000
     32 H181        -0.6870     0.5240    -2.0320 h1         1 JMY       0.097700
@<TRIPOS>BOND
     1     1    16 ar  
     2     1    17 ar  
     3     1    19 1   
     4     2    13 ar  
     5     2    17 ar  
     6     2    18 1   
     7     3     4 1   
     8     3    20 1   
     9     3    21 1   
    10     3    22 1   
    11     4     5 2   
    12     4     6 1   
    13     6     7 1   
    14     6    18 1   
    15     7     8 1   
    16     7    23 1   
    17     7    24 1   
    18     8     9 1   
    19     8    11 1   
    20     8    25 1   
    21     9    10 1   
    22     9    26 1   
    23     9    27 1   
    24    10    28 1   
    25    11    12 1   
    26    11    18 1   
    27    11    29 1   
    28    12    13 1   
    29    13    14 ar  
    30    14    15 1   
    31    14    16 ar  
    32    16    30 1   
    33    17    31 1   
    34    18    32 1   
@<TRIPOS>SUBSTRUCTURE
     1 JMY         1 TEMP              0 ****  ****    0 ROOT
