@<TRIPOS>MOLECULE
JMY
   32    34     1     0     0
SMALL
bcc


@<TRIPOS>ATOM
      1 C15          3.2640     1.4580    -0.3140 ca         1 JMY      -0.146000
      2 C17          1.1110     0.4750    -0.6080 ca         1 JMY      -0.167300
      3 C01         -2.4960     2.5980     1.2260 c3         1 JMY      -0.175100
      4 C02         -1.5570     2.1450     0.1370 c          1 JMY       0.680100
      5 O03         -1.1240     2.9180    -0.7100 o          1 JMY      -0.611100
      6 N04         -1.2280     0.8400     0.1270 n          1 JMY      -0.484800
      7 C05         -1.6650    -0.1870     1.0580 c5         1 JMY       0.108000
      8 C06         -1.7060    -1.4400     0.1870 c5         1 JMY      -0.088700
      9 C07         -2.9870    -1.5440    -0.6280 c3         1 JMY       0.143400
     10 O08         -4.0720    -1.6770     0.2580 oh         1 JMY      -0.598800
     11 C09         -0.5180    -1.2430    -0.7440 c5         1 JMY       0.118100
     12 O10          0.6930    -1.7310    -0.1370 os         1 JMY      -0.288900
     13 C11          1.5990    -0.7370    -0.1540 ca         1 JMY       0.088100
     14 C12          2.9220    -0.8570     0.2280 ca         1 JMY       0.105900
     15 F13          3.3840    -2.0380     0.6660 f          1 JMY      -0.131900
     16 C14          3.7570     0.2410     0.1500 ca         1 JMY      -0.131000
     17 C16          1.9330     1.5850    -0.6970 ca         1 JMY      -0.064000
     18 C18         -0.3530     0.2860    -0.8980 c5         1 JMY       0.139000
     19 H151         3.9300     2.3070    -0.3750 ha         1 JMY       0.140000
     20 H012        -2.1620     2.2810     2.2150 hc         1 JMY       0.062367
     21 H013        -2.5710     3.6820     1.2140 hc         1 JMY       0.062367
     22 H011        -3.4940     2.1850     1.0710 hc         1 JMY       0.062367
     23 H052        -0.9520    -0.3010     1.8810 h1         1 JMY       0.064200
     24 H051        -2.6350     0.0480     1.4910 h1         1 JMY       0.064200
     25 H061        -1.5900    -2.3490     0.7830 hc         1 JMY       0.097700
     26 H072        -3.0980    -0.6590    -1.2700 h1         1 JMY       0.025700
     27 H071        -2.9030    -2.4090    -1.2980 h1         1 JMY       0.025700
     28 H081        -4.8850    -1.6220    -0.2510 ho         1 JMY       0.410000
     29 H091        -0.6350    -1.7510    -1.7050 h1         1 JMY       0.081700
     30 H141         4.7940     0.1430     0.4470 ha         1 JMY       0.150000
     31 H161         1.5480     2.5300    -1.0540 ha         1 JMY       0.160000
     32 H181        -0.6430     0.6470    -1.8850 h1         1 JMY       0.097700
@<TRIPOS>BOND
     1     1    16 ar  
     2     1    17 ar  
     3     1    19 1   
     4     2    13 ar  
     5     2    17 ar  
     6     2    18 1   
     7     3     4 1   
     8     3    20 1   
     9     3    21 1   
    10     3    22 1   
    11     4     5 2   
    12     4     6 1   
    13     6     7 1   
    14     6    18 1   
    15     7     8 1   
    16     7    23 1   
    17     7    24 1   
    18     8     9 1   
    19     8    11 1   
    20     8    25 1   
    21     9    10 1   
    22     9    26 1   
    23     9    27 1   
    24    10    28 1   
    25    11    12 1   
    26    11    18 1   
    27    11    29 1   
    28    12    13 1   
    29    13    14 ar  
    30    14    15 1   
    31    14    16 ar  
    32    16    30 1   
    33    17    31 1   
    34    18    32 1   
@<TRIPOS>SUBSTRUCTURE
     1 JMY         1 TEMP              0 ****  ****    0 ROOT
