@<TRIPOS>MOLECULE
JMZ
   27    29     1     0     0
SMALL
No Charge or Current Charge


@<TRIPOS>ATOM
      1 C4           3.8900    -1.4900    -0.2560 ca         1 JMZ       0.149900
      2 C5          -0.5040     0.8180    -0.1950 ca         1 JMZ      -0.092000
      3 C6           0.2190    -0.4040    -0.0290 cp         1 JMZ      -0.116500
      4 C7          -2.5940    -0.3760    -0.0190 ca         1 JMZ      -0.247900
      5 C8           1.7250    -0.4190    -0.0330 cp         1 JMZ       0.224500
      6 C10         -3.9710     0.0170    -0.0690 cc         1 JMZ       0.547800
      7 N12         -5.0130    -0.8150     0.0690 nv         1 JMZ      -0.963200
      8 C1          -0.5400    -1.6080     0.1470 ca         1 JMZ      -0.141000
      9 C2          -1.9520    -1.6070     0.1530 ca         1 JMZ      -0.033000
     10 C3           2.4890    -1.5900    -0.2730 ca         1 JMZ      -0.274000
     11 C9          -1.9030     0.7810    -0.1850 ca         1 JMZ      -0.021200
     12 C11          3.7020     0.7350     0.1890 ca         1 JMZ       0.381900
     13 N13          4.3150     1.9220     0.4230 nv         1 JMZ      -1.061900
     14 N14         -2.8340     1.7950    -0.3260 na         1 JMZ      -0.065400
     15 N15          4.5060    -0.3170    -0.0210 nb         1 JMZ      -0.243000
     16 N16          2.3620     0.7490     0.1920 nb         1 JMZ      -0.260000
     17 N17         -4.1550     1.3160    -0.2510 nd         1 JMZ      -0.578100
     18 H4           4.5260    -2.3560    -0.4360 h4         1 JMZ       0.020100
     19 HN12        -4.8350    -1.7230     0.4830 hn         1 JMZ       0.447500
     20 HN1A        -5.9150    -0.3930     0.2530 hn         1 JMZ       0.447500
     21 H1          -0.0330    -2.5580     0.2970 ha         1 JMZ       0.117000
     22 H2          -2.5150    -2.5280     0.2890 ha         1 JMZ       0.118000
     23 H3           2.0210    -2.5460    -0.4820 ha         1 JMZ       0.136000
     24 HN13         5.3080     2.0050     0.2150 hn         1 JMZ       0.494500
     25 HN1B         3.7630     2.7750     0.3710 hn         1 JMZ       0.494500
     26 HN14        -2.6270     2.7840    -0.4670 hn         1 JMZ       0.379000
     27 H5           0.0100     1.7660    -0.3360 ha         1 JMZ       0.140000
@<TRIPOS>BOND
     1     1    10 ar  
     2     1    15 ar  
     3     1    18 1   
     4     2     3 ar  
     5     2    11 ar  
     6     2    27 1   
     7     3     5 1   
     8     3     8 ar  
     9     4     6 1   
    10     4     9 ar  
    11     4    11 ar  
    12     5    10 ar  
    13     5    16 ar  
    14     6     7 1   
    15     6    17 2   
    16     7    19 1   
    17     7    20 1   
    18     8     9 ar  
    19     8    21 1   
    20     9    22 1   
    21    10    23 1   
    22    11    14 1   
    23    12    13 1   
    24    12    15 ar  
    25    12    16 ar  
    26    13    24 1   
    27    13    25 1   
    28    14    17 1   
    29    14    26 1   
@<TRIPOS>SUBSTRUCTURE
     1 JMZ         1 TEMP              0 ****  ****    0 ROOT
