@<TRIPOS>MOLECULE
JMZ
   27    29     1     0     0
SMALL
abcg2


@<TRIPOS>ATOM
      1 C4           3.8030    -1.4470    -0.3020 ca         1 JMZ       0.149900
      2 C5          -0.4440     0.7990    -0.2050 ca         1 JMZ      -0.092000
      3 C6           0.2170    -0.4020    -0.0250 cp         1 JMZ      -0.116500
      4 C7          -2.5620    -0.4150    -0.0060 ca         1 JMZ      -0.247900
      5 C8           1.6970    -0.4170    -0.0380 cp         1 JMZ       0.224500
      6 C10         -3.9310    -0.0100    -0.0650 cc         1 JMZ       0.547800
      7 N12         -5.0300    -0.8360     0.0080 nv         1 JMZ      -0.963200
      8 C1          -0.5060    -1.6050     0.1700 ca         1 JMZ      -0.141000
      9 C2          -1.8810    -1.6200     0.1830 ca         1 JMZ      -0.033000
     10 C3           2.4240    -1.5740    -0.3080 ca         1 JMZ      -0.274000
     11 C9          -1.8410     0.7750    -0.2010 ca         1 JMZ      -0.021200
     12 C11          3.6450     0.7480     0.1820 ca         1 JMZ       0.381900
     13 N13          4.2550     1.9160     0.4600 nv         1 JMZ      -1.061900
     14 N14         -2.7570     1.7480    -0.3690 na         1 JMZ      -0.065400
     15 N15          4.4300    -0.3100    -0.0590 nb         1 JMZ      -0.243000
     16 N16          2.3110     0.7360     0.2010 nb         1 JMZ      -0.260000
     17 N17         -4.0210     1.2800    -0.2720 nd         1 JMZ      -0.578100
     18 H4           4.4290    -2.3080    -0.5110 h4         1 JMZ       0.020100
     19 HN12        -4.9280    -1.5970     0.6610 hn         1 JMZ       0.447500
     20 HN1A        -5.8970    -0.3450     0.1700 hn         1 JMZ       0.447500
     21 H1           0.0280    -2.5300     0.3370 ha         1 JMZ       0.117000
     22 H2          -2.4130    -2.5490     0.3460 ha         1 JMZ       0.118000
     23 H3           1.9600    -2.5210    -0.5380 ha         1 JMZ       0.136000
     24 HN13         5.2390     2.0030     0.2750 hn         1 JMZ       0.494500
     25 HN1B         3.7120     2.7620     0.4580 hn         1 JMZ       0.494500
     26 HN14        -2.6020     2.7330    -0.4980 hn         1 JMZ       0.379000
     27 H5           0.1060     1.7190    -0.3520 ha         1 JMZ       0.140000
@<TRIPOS>BOND
     1     1    10 ar  
     2     1    15 ar  
     3     1    18 1   
     4     2     3 ar  
     5     2    11 ar  
     6     2    27 1   
     7     3     5 1   
     8     3     8 ar  
     9     4     6 1   
    10     4     9 ar  
    11     4    11 ar  
    12     5    10 ar  
    13     5    16 ar  
    14     6     7 1   
    15     6    17 2   
    16     7    19 1   
    17     7    20 1   
    18     8     9 ar  
    19     8    21 1   
    20     9    22 1   
    21    10    23 1   
    22    11    14 1   
    23    12    13 1   
    24    12    15 ar  
    25    12    16 ar  
    26    13    24 1   
    27    13    25 1   
    28    14    17 1   
    29    14    26 1   
@<TRIPOS>SUBSTRUCTURE
     1 JMZ         1 TEMP              0 ****  ****    0 ROOT
