@<TRIPOS>MOLECULE
JN0
   44    46     1     0     0
SMALL
No Charge or Current Charge


@<TRIPOS>ATOM
      1 C4          22.6400    -1.7530    21.6720 ca         1 JN0      -0.299000
      2 C14         24.4760    -1.6440    29.2720 ca         1 JN0       0.043100
      3 C5          22.9750    -2.0900    22.9920 ca         1 JN0       0.233100
      4 C6          23.8650    -3.1390    23.2350 ca         1 JN0      -0.381600
      5 C11         24.2490    -3.9460    27.6950 ca         1 JN0      -0.067000
      6 C7          22.8680    -1.4540    25.2670 cc         1 JN0       0.045100
      7 C8          23.6160    -2.5570    25.6670 cd         1 JN0      -0.208400
      8 C9          24.1780    -3.4690    24.6390 c          1 JN0       0.615900
      9 C10         24.0060    -2.6840    27.1020 ca         1 JN0      -0.035800
     10 C12         24.6070    -4.0710    29.0530 ca         1 JN0      -0.079300
     11 C13         24.7260    -2.9070    29.8390 ca         1 JN0       0.131100
     12 C3          23.2090    -2.4420    20.5990 ca         1 JN0       0.244100
     13 C1          24.4320    -3.8310    22.1480 ca         1 JN0       0.282100
     14 C15         24.1140    -1.5340    27.9200 ca         1 JN0      -0.155000
     15 C16         24.8640    -5.4600    29.6340 c3         1 JN0       0.020100
     16 C17         26.3360    -5.8290    29.5800 c2         1 JN0      -0.219200
     17 C18         26.9700    -6.6060    28.6780 c2         1 JN0      -0.107400
     18 C19         28.4560    -6.9010    28.7710 c3         1 JN0      -0.055900
     19 C2          24.1070    -3.4810    20.8360 ca         1 JN0      -0.246000
     20 C20         26.3290    -7.2730    27.4700 c3         1 JN0      -0.055900
     21 O1          22.3340    -1.3840    23.9890 os         1 JN0      -0.204200
     22 O2          24.9140    -4.4170    24.8880 o          1 JN0      -0.582100
     23 O3          25.3020    -4.8510    22.3520 oh         1 JN0      -0.537100
     24 O4          22.8860    -2.1080    19.3220 oh         1 JN0      -0.518100
     25 O6          25.0820    -2.9690    31.1580 oh         1 JN0      -0.532100
     26 H1          21.9320    -0.9480    21.4960 ha         1 JN0       0.137000
     27 H2          24.1260    -4.8550    27.1160 ha         1 JN0       0.126000
     28 H3          22.4630    -0.6830    25.9140 h4         1 JN0       0.234000
     29 H4          23.9540    -0.5440    27.5030 ha         1 JN0       0.110000
     30 H5          24.5160    -5.5070    30.6730 hc         1 JN0       0.054200
     31 H6          24.2490    -6.2020    29.1130 hc         1 JN0       0.054200
     32 H7          26.9040    -5.3950    30.4040 ha         1 JN0       0.174000
     33 H8          28.9150    -6.4190    29.6420 hc         1 JN0       0.038533
     34 H9          28.6390    -7.9790    28.8590 hc         1 JN0       0.038533
     35 H10         28.9860    -6.5430    27.8800 hc         1 JN0       0.038533
     36 H11         24.5480    -4.0200    20.0040 ha         1 JN0       0.153000
     37 H12         26.4140    -8.3650    27.5350 hc         1 JN0       0.038533
     38 H13         25.2670    -7.0370    27.3570 hc         1 JN0       0.038533
     39 H14         26.8230    -6.9580    26.5430 hc         1 JN0       0.038533
     40 H15         25.3680    -4.9360    23.3380 ho         1 JN0       0.525000
     41 H16         22.2480    -1.3650    19.3570 ho         1 JN0       0.475000
     42 H17         24.3890     0.2710    29.4910 ho         1 JN0       0.474000
     43 H18         25.0930    -2.0370    31.4710 ho         1 JN0       0.481000
     44 O5          24.5930    -0.5160    30.0430 oh         1 JN0      -0.559100
@<TRIPOS>BOND
     1     1     3 ar  
     2     1    12 ar  
     3     1    26 1   
     4     2    11 ar  
     5     2    14 ar  
     6     2    44 1   
     7     3     4 ar  
     8     3    21 1   
     9     4     8 1   
    10     4    13 ar  
    11     5     9 ar  
    12     5    10 ar  
    13     5    27 1   
    14     6     7 2   
    15     6    21 1   
    16     6    28 1   
    17     7     8 1   
    18     7     9 1   
    19     8    22 2   
    20     9    14 ar  
    21    10    11 ar  
    22    10    15 1   
    23    11    25 1   
    24    12    19 ar  
    25    12    24 1   
    26    13    19 ar  
    27    13    23 1   
    28    14    29 1   
    29    15    16 1   
    30    15    30 1   
    31    15    31 1   
    32    16    17 2   
    33    16    32 1   
    34    17    18 1   
    35    17    20 1   
    36    18    33 1   
    37    18    34 1   
    38    18    35 1   
    39    19    36 1   
    40    20    37 1   
    41    20    38 1   
    42    20    39 1   
    43    23    40 1   
    44    24    41 1   
    45    25    43 1   
    46    42    44 1   
@<TRIPOS>SUBSTRUCTURE
     1 JN0         1 TEMP              0 ****  ****    0 ROOT
