@<TRIPOS>MOLECULE
JN0
   44    46     1     0     0
SMALL
abcg2


@<TRIPOS>ATOM
      1 C4          22.4230    -1.9270    21.7340 ca         1 JN0      -0.299000
      2 C14         24.6630    -1.6430    29.1750 ca         1 JN0       0.043100
      3 C5          22.9100    -2.1660    23.0050 ca         1 JN0       0.233100
      4 C6          24.0240    -2.9720    23.2520 ca         1 JN0      -0.381600
      5 C11         24.2310    -3.9150    27.6600 ca         1 JN0      -0.067000
      6 C7          22.6680    -1.7800    25.2870 cc         1 JN0       0.045100
      7 C8          23.7210    -2.5380    25.6480 cd         1 JN0      -0.208400
      8 C9          24.4910    -3.1950    24.6020 c          1 JN0       0.615900
      9 C10         24.1010    -2.6660    27.0660 ca         1 JN0      -0.035800
     10 C12         24.5770    -4.0510    29.0010 ca         1 JN0      -0.079300
     11 C13         24.8020    -2.9060    29.7610 ca         1 JN0       0.131100
     12 C3          23.0820    -2.5240    20.6630 ca         1 JN0       0.244100
     13 C1          24.6770    -3.5580    22.1370 ca         1 JN0       0.282100
     14 C15         24.3210    -1.5270    27.8380 ca         1 JN0      -0.155000
     15 C16         24.7540    -5.4250    29.6000 c3         1 JN0       0.020100
     16 C17         26.2000    -5.8370    29.5950 c2         1 JN0      -0.219200
     17 C18         26.8050    -6.6370    28.7140 c2         1 JN0      -0.107400
     18 C19         28.2730    -6.9350    28.8240 c3         1 JN0      -0.055900
     19 C2          24.2050    -3.3330    20.8580 ca         1 JN0      -0.246000
     20 C20         26.1300    -7.2910    27.5450 c3         1 JN0      -0.055900
     21 O1          22.2620    -1.5790    24.0320 os         1 JN0      -0.204200
     22 O2          25.4870    -3.8900    24.8400 o          1 JN0      -0.582100
     23 O3          25.7470    -4.3250    22.3110 oh         1 JN0      -0.537100
     24 O4          22.6810    -2.3520    19.4000 oh         1 JN0      -0.518100
     25 O6          25.1540    -3.0440    31.0570 oh         1 JN0      -0.532100
     26 H1          21.5550    -1.2960    21.5870 ha         1 JN0       0.137000
     27 H2          24.0490    -4.8120    27.0810 ha         1 JN0       0.126000
     28 H3          22.0410    -1.2570    25.9970 h4         1 JN0       0.234000
     29 H4          24.2410    -0.5420    27.3910 ha         1 JN0       0.110000
     30 H5          24.3750    -5.4460    30.6230 hc         1 JN0       0.054200
     31 H6          24.1450    -6.1320    29.0360 hc         1 JN0       0.054200
     32 H7          26.8080    -5.4030    30.3840 ha         1 JN0       0.174000
     33 H8          28.7340    -6.4200    29.6670 hc         1 JN0       0.038533
     34 H9          28.4450    -8.0070    28.9450 hc         1 JN0       0.038533
     35 H10         28.8010    -6.6380    27.9150 hc         1 JN0       0.038533
     36 H11         24.7020    -3.7840    20.0090 ha         1 JN0       0.153000
     37 H12         26.3250    -8.3660    27.5390 hc         1 JN0       0.038533
     38 H13         25.0520    -7.1460    27.5230 hc         1 JN0       0.038533
     39 H14         26.5330    -6.8970    26.6080 hc         1 JN0       0.038533
     40 H15         25.9290    -4.3640    23.2820 ho         1 JN0       0.525000
     41 H16         21.8950    -1.7930    19.3560 ho         1 JN0       0.475000
     42 H17         24.7770     0.2470    29.5140 ho         1 JN0       0.474000
     43 H18         25.2770    -2.1810    31.4690 ho         1 JN0       0.481000
     44 O5          24.8960    -0.5850    29.9860 oh         1 JN0      -0.559100
@<TRIPOS>BOND
     1     1     3 ar  
     2     1    12 ar  
     3     1    26 1   
     4     2    11 ar  
     5     2    14 ar  
     6     2    44 1   
     7     3     4 ar  
     8     3    21 1   
     9     4     8 1   
    10     4    13 ar  
    11     5     9 ar  
    12     5    10 ar  
    13     5    27 1   
    14     6     7 2   
    15     6    21 1   
    16     6    28 1   
    17     7     8 1   
    18     7     9 1   
    19     8    22 2   
    20     9    14 ar  
    21    10    11 ar  
    22    10    15 1   
    23    11    25 1   
    24    12    19 ar  
    25    12    24 1   
    26    13    19 ar  
    27    13    23 1   
    28    14    29 1   
    29    15    16 1   
    30    15    30 1   
    31    15    31 1   
    32    16    17 2   
    33    16    32 1   
    34    17    18 1   
    35    17    20 1   
    36    18    33 1   
    37    18    34 1   
    38    18    35 1   
    39    19    36 1   
    40    20    37 1   
    41    20    38 1   
    42    20    39 1   
    43    23    40 1   
    44    24    41 1   
    45    25    43 1   
    46    42    44 1   
@<TRIPOS>SUBSTRUCTURE
     1 JN0         1 TEMP              0 ****  ****    0 ROOT
