@<TRIPOS>MOLECULE
JN2
   47    49     1     0     0
SMALL
No Charge or Current Charge


@<TRIPOS>ATOM
      1 C2          -0.3140     0.1980     0.4820 c          1 JN2       0.623700
      2 C4           0.8810     1.9410    -0.9780 ca         1 JN2      -0.085000
      3 C3           0.9300     0.8000    -0.1410 ca         1 JN2      -0.150600
      4 C9           4.7090     0.0750    -0.1570 cp         1 JN2      -0.056000
      5 C8           2.1880     0.2060     0.1150 ca         1 JN2      -0.046000
      6 C13          6.9590    -0.5980    -0.8860 ca         1 JN2      -0.152000
      7 C14          5.7180     0.0070    -1.1520 ca         1 JN2      -0.071500
      8 C7           3.3870     0.7200    -0.4410 cp         1 JN2      -0.038000
      9 C6           3.2960     1.8600    -1.2730 ca         1 JN2      -0.079000
     10 C10          4.9930    -0.4850     1.1160 ca         1 JN2      -0.071500
     11 C12          7.2140    -1.1440     0.3790 ca         1 JN2       0.176000
     12 C11          6.2350    -1.0890     1.3820 ca         1 JN2      -0.152000
     13 C5           2.0570     2.4630    -1.5370 ca         1 JN2      -0.119000
     14 C15         -3.9080     1.4180     0.5620 c6         1 JN2       0.099300
     15 C17         -5.2990     0.7740     0.8190 c6         1 JN2       0.140300
     16 O3          -6.3240     1.7830     0.7910 oh         1 JN2      -0.666000
     17 C16         -5.5870    -0.3390    -0.2300 c6         1 JN2       0.142300
     18 O4          -6.8630    -0.9470     0.0470 oh         1 JN2      -0.715000
     19 C19         -4.4180    -1.3740    -0.2120 c6         1 JN2       0.179300
     20 C18         -4.5880    -2.4810    -1.3060 c3         1 JN2       0.172600
     21 O6          -3.4970    -3.4250    -1.3430 oh         1 JN2      -0.706000
     22 O5          -3.1550    -0.6910    -0.4390 os         1 JN2      -0.461000
     23 C1          -2.8200     0.2910     0.5610 c6         1 JN2       0.296700
     24 N1          -1.5090     0.8100     0.1900 ns         1 JN2      -0.500900
     25 F15          8.4060    -1.7250     0.6350 f          1 JN2      -0.178000
     26 O2          -0.2660    -0.7740     1.2240 o          1 JN2      -0.575100
     27 H1          -0.0590     2.4370    -1.2060 ha         1 JN2       0.108000
     28 H2           2.2390    -0.6800     0.7440 ha         1 JN2       0.141000
     29 H3           7.7220    -0.6470    -1.6600 ha         1 JN2       0.134000
     30 H4           5.5330     0.4140    -2.1440 ha         1 JN2       0.121500
     31 H5           4.1950     2.2920    -1.7070 ha         1 JN2       0.118000
     32 H6           4.2510    -0.4390     1.9100 ha         1 JN2       0.121500
     33 H7           6.4400    -1.5110     2.3620 ha         1 JN2       0.134000
     34 H8           2.0100     3.3420    -2.1760 ha         1 JN2       0.118000
     35 H10         -3.9200     1.8760    -0.4390 h1         1 JN2       0.049700
     36 H11         -5.2720     0.3050     1.8160 h1         1 JN2       0.058700
     37 H12         -5.9070     2.5670     1.2210 ho         1 JN2       0.466000
     38 H13         -5.6100     0.1280    -1.2260 h1         1 JN2       0.051700
     39 H14         -7.4500    -0.1950     0.3070 ho         1 JN2       0.525000
     40 H15         -4.3830    -1.8680     0.7700 h1         1 JN2       0.067700
     41 H16         -5.5310    -3.0110    -1.1150 h1         1 JN2       0.034700
     42 H17         -4.6870    -1.9830    -2.2800 h1         1 JN2       0.034700
     43 H18         -3.6670    -4.0310    -2.1020 ho         1 JN2       0.503000
     44 H19         -2.7640    -0.1820     1.5550 h2         1 JN2       0.089700
     45 H20         -1.4740     1.5760    -0.4670 hn         1 JN2       0.313500
     46 O1          -3.6500     2.4350     1.5600 oh         1 JN2      -0.715000
     47 H9          -2.7180     2.7390     1.4420 ho         1 JN2       0.516000
@<TRIPOS>BOND
     1     1     3 1   
     2     1    24 1   
     3     1    26 2   
     4     2     3 ar  
     5     2    13 ar  
     6     2    27 1   
     7     3     5 ar  
     8     4     7 ar  
     9     4     8 1   
    10     4    10 ar  
    11     5     8 ar  
    12     5    28 1   
    13     6     7 ar  
    14     6    11 ar  
    15     6    29 1   
    16     7    30 1   
    17     8     9 ar  
    18     9    13 ar  
    19     9    31 1   
    20    10    12 ar  
    21    10    32 1   
    22    11    12 ar  
    23    11    25 1   
    24    12    33 1   
    25    13    34 1   
    26    14    15 1   
    27    14    23 1   
    28    14    35 1   
    29    14    46 1   
    30    15    16 1   
    31    15    17 1   
    32    15    36 1   
    33    16    37 1   
    34    17    18 1   
    35    17    19 1   
    36    17    38 1   
    37    18    39 1   
    38    19    20 1   
    39    19    22 1   
    40    19    40 1   
    41    20    21 1   
    42    20    41 1   
    43    20    42 1   
    44    21    43 1   
    45    22    23 1   
    46    23    24 1   
    47    23    44 1   
    48    24    45 1   
    49    46    47 1   
@<TRIPOS>SUBSTRUCTURE
     1 JN2         1 TEMP              0 ****  ****    0 ROOT
