@<TRIPOS>MOLECULE
JN2
   47    49     1     0     0
SMALL
bcc


@<TRIPOS>ATOM
      1 C2          -0.3040     0.3870     0.5360 c          1 JN2       0.690700
      2 C4           0.9390     2.2270    -0.6920 ca         1 JN2      -0.103000
      3 C3           0.9360     1.0030    -0.0260 ca         1 JN2      -0.150600
      4 C9           4.5950     0.0750    -0.1590 cp         1 JN2      -0.056000
      5 C8           2.1340     0.3170     0.1520 ca         1 JN2      -0.064000
      6 C13          6.7470    -0.6560    -1.0040 ca         1 JN2      -0.170000
      7 C14          5.5620     0.0460    -1.1650 ca         1 JN2      -0.089500
      8 C7           3.3340     0.8210    -0.3430 cp         1 JN2      -0.038000
      9 C6           3.3160     2.0450    -1.0120 ca         1 JN2      -0.097000
     10 C10          4.8500    -0.6200     1.0240 ca         1 JN2      -0.089500
     11 C12          6.9580    -1.3330     0.1810 ca         1 JN2       0.140900
     12 C11          6.0280    -1.3280     1.2030 ca         1 JN2      -0.170000
     13 C5           2.1300     2.7420    -1.1800 ca         1 JN2      -0.137000
     14 C15         -3.8050     1.3890     0.3420 c6         1 JN2       0.076100
     15 C17         -5.1560     0.7820     0.6910 c6         1 JN2       0.117100
     16 O3          -6.2060     1.7080     0.5490 oh         1 JN2      -0.603800
     17 C16         -5.4590    -0.4010    -0.2210 c6         1 JN2       0.119100
     18 O4          -6.6300    -1.0680     0.1790 oh         1 JN2      -0.592800
     19 C19         -4.3020    -1.4010    -0.1700 c6         1 JN2       0.156100
     20 C18         -4.5020    -2.5410    -1.1450 c3         1 JN2       0.149400
     21 O6          -3.4530    -3.4660    -0.9900 oh         1 JN2      -0.583800
     22 O5          -3.0940    -0.7500    -0.5080 os         1 JN2      -0.414600
     23 C1          -2.7440     0.2860     0.3780 c6         1 JN2       0.273500
     24 N1          -1.4730     0.8040    -0.0110 ns         1 JN2      -0.567900
     25 F15          8.1010    -2.0180     0.3460 f          1 JN2      -0.142900
     26 O2          -0.2520    -0.4300     1.4390 o          1 JN2      -0.575100
     27 H1           0.0320     2.8040    -0.8140 ha         1 JN2       0.126000
     28 H2           2.1230    -0.6370     0.6630 ha         1 JN2       0.159000
     29 H3           7.4870    -0.6830    -1.7920 ha         1 JN2       0.152000
     30 H4           5.3870     0.5610    -2.1010 ha         1 JN2       0.139500
     31 H5           4.2390     2.4720    -1.3840 ha         1 JN2       0.136000
     32 H6           4.1300    -0.5980     1.8320 ha         1 JN2       0.139500
     33 H7           6.2210    -1.8590     2.1260 ha         1 JN2       0.152000
     34 H8           2.1350     3.6990    -1.6840 ha         1 JN2       0.136000
     35 H10         -3.8520     1.7940    -0.6810 h1         1 JN2       0.049700
     36 H11         -5.1040     0.4060     1.7250 h1         1 JN2       0.058700
     37 H12         -6.1240     2.3730     1.2400 ho         1 JN2       0.427000
     38 H13         -5.5490    -0.0290    -1.2550 h1         1 JN2       0.051700
     39 H14         -7.3650    -0.4480     0.1180 ho         1 JN2       0.426000
     40 H15         -4.2370    -1.8070     0.8530 h1         1 JN2       0.067700
     41 H16         -5.4770    -2.9960    -0.9450 h1         1 JN2       0.034700
     42 H17         -4.5400    -2.1320    -2.1650 h1         1 JN2       0.034700
     43 H18         -3.6390    -4.2200    -1.5550 ho         1 JN2       0.404000
     44 H19         -2.6600    -0.0960     1.4030 h2         1 JN2       0.089700
     45 H20         -1.4430     1.3290    -0.8730 hn         1 JN2       0.313500
     46 O1          -3.5290     2.3950     1.2820 oh         1 JN2      -0.592800
     47 H9          -2.7620     2.8940     0.9850 ho         1 JN2       0.417000
@<TRIPOS>BOND
     1     1     3 1   
     2     1    24 1   
     3     1    26 2   
     4     2     3 ar  
     5     2    13 ar  
     6     2    27 1   
     7     3     5 ar  
     8     4     7 ar  
     9     4     8 1   
    10     4    10 ar  
    11     5     8 ar  
    12     5    28 1   
    13     6     7 ar  
    14     6    11 ar  
    15     6    29 1   
    16     7    30 1   
    17     8     9 ar  
    18     9    13 ar  
    19     9    31 1   
    20    10    12 ar  
    21    10    32 1   
    22    11    12 ar  
    23    11    25 1   
    24    12    33 1   
    25    13    34 1   
    26    14    15 1   
    27    14    23 1   
    28    14    35 1   
    29    14    46 1   
    30    15    16 1   
    31    15    17 1   
    32    15    36 1   
    33    16    37 1   
    34    17    18 1   
    35    17    19 1   
    36    17    38 1   
    37    18    39 1   
    38    19    20 1   
    39    19    22 1   
    40    19    40 1   
    41    20    21 1   
    42    20    41 1   
    43    20    42 1   
    44    21    43 1   
    45    22    23 1   
    46    23    24 1   
    47    23    44 1   
    48    24    45 1   
    49    46    47 1   
@<TRIPOS>SUBSTRUCTURE
     1 JN2         1 TEMP              0 ****  ****    0 ROOT
