@<TRIPOS>MOLECULE
JN3
   67    70     1     0     0
SMALL
abcg2


@<TRIPOS>ATOM
      1 C1           1.2020    -6.2240     2.6790 c6         1 JN3      -0.065400
      2 C2           1.7480    -5.6420     3.9740 c6         1 JN3      -0.106400
      3 C3           0.6040    -5.1530     4.8490 c6         1 JN3       0.165300
      4 O3           1.0540    -4.6400     6.0910 oh         1 JN3      -0.663000
      5 C4          -0.2410    -4.1410     4.0910 c6         1 JN3      -0.104400
      6 C5          -0.7600    -4.6770     2.7520 c6         1 JN3      -0.036700
      7 C6          -1.6130    -3.6460     2.0090 c6         1 JN3      -0.064400
      8 C7          -0.8330    -2.5180     1.3470 c6         1 JN3       0.180300
      9 O7          -0.4130    -1.6110     2.3540 oh         1 JN3      -0.676000
     10 C8           0.3350    -3.0600     0.5110 c6         1 JN3      -0.077700
     11 C9           1.2000    -4.0720     1.2880 c6         1 JN3      -0.037700
     12 C10          0.3560    -5.2470     1.8450 c6         1 JN3      -0.034000
     13 C11          2.3990    -4.5260     0.4500 c6         1 JN3      -0.072400
     14 C12          3.2180    -3.3750    -0.1380 c6         1 JN3      -0.062400
     15 C13          2.3520    -2.4180    -0.9550 c5         1 JN3      -0.035000
     16 C14          1.2220    -1.9420    -0.0240 c5         1 JN3      -0.075700
     17 C15          0.5740    -0.7970    -0.7950 c5         1 JN3      -0.076400
     18 C16          1.7660    -0.1180    -1.4960 c5         1 JN3      -0.083400
     19 C17          2.9920    -1.0550    -1.3200 c5         1 JN3      -0.043700
     20 C18          1.8170    -3.1070    -2.2160 c3         1 JN3      -0.078100
     21 C19         -0.2760    -6.0780     0.7190 c3         1 JN3      -0.083100
     22 C20          3.9470    -0.9820    -2.5180 c3         1 JN3      -0.052700
     23 C21          5.1140    -1.9610    -2.4190 c3         1 JN3      -0.080100
     24 C22          4.4730     0.4510    -2.6970 c3         1 JN3      -0.043400
     25 C23          5.1140     0.7230    -4.0510 c3         1 JN3      -0.209400
     26 O25          2.9520     0.9890    -5.0350 o          1 JN3      -0.744500
     27 C24          4.1470     0.7020    -5.2500 c          1 JN3       0.712000
     28 O26          4.6480     0.4350    -6.3640 o          1 JN3      -0.744500
     29 H11          2.0150    -6.6310     2.0750 hc         1 JN3       0.037700
     30 H12          0.5680    -7.0830     2.9330 hc         1 JN3       0.037700
     31 H21          2.3280    -6.4020     4.5060 hc         1 JN3       0.044700
     32 H22          2.4360    -4.8130     3.7660 hc         1 JN3       0.044700
     33 H3          -0.0190    -6.0180     5.1080 h1         1 JN3       0.061700
     34 HO3          1.5890    -3.8600     5.9100 ho         1 JN3       0.437000
     35 H41          0.3450    -3.2310     3.9470 hc         1 JN3       0.055700
     36 H42         -1.1010    -3.8510     4.7040 hc         1 JN3       0.055700
     37 H5          -1.4250    -5.5180     2.9910 hc         1 JN3       0.033700
     38 H61         -2.1870    -4.1520     1.2270 hc         1 JN3       0.043700
     39 H62         -2.3590    -3.2180     2.6870 hc         1 JN3       0.043700
     40 H7          -1.5180    -1.9990     0.6590 h1         1 JN3       0.027700
     41 HO7          0.0150    -0.8620     1.9270 ho         1 JN3       0.448000
     42 H8          -0.1240    -3.5620    -0.3480 hc         1 JN3       0.055700
     43 H9           1.6110    -3.5290     2.1490 hc         1 JN3       0.050700
     44 H111         2.0630    -5.1740    -0.3650 hc         1 JN3       0.032700
     45 H112         3.0680    -5.1370     1.0600 hc         1 JN3       0.032700
     46 H121         3.6900    -2.8120     0.6770 hc         1 JN3       0.039700
     47 H122         4.0320    -3.7970    -0.7300 hc         1 JN3       0.039700
     48 H14          1.7450    -1.5000     0.8390 hc         1 JN3       0.038700
     49 H151         0.0260    -0.1010    -0.1540 hc         1 JN3       0.030700
     50 H152        -0.1500    -1.1820    -1.5180 hc         1 JN3       0.030700
     51 H161         1.5710     0.0510    -2.5580 hc         1 JN3       0.064200
     52 H162         1.9610     0.8650    -1.0660 hc         1 JN3       0.064200
     53 H17          3.5490    -0.7270    -0.4300 hc         1 JN3       0.026700
     54 H181         1.1980    -3.9750    -1.9900 hc         1 JN3       0.034367
     55 H182         1.2170    -2.4340    -2.8310 hc         1 JN3       0.034367
     56 H183         2.6390    -3.4610    -2.8410 hc         1 JN3       0.034367
     57 H191        -0.9570    -6.8190     1.1450 hc         1 JN3       0.031367
     58 H192        -0.8460    -5.4870     0.0030 hc         1 JN3       0.031367
     59 H193         0.4790    -6.6270     0.1540 hc         1 JN3       0.031367
     60 H20          3.3680    -1.2320    -3.4140 hc         1 JN3       0.081700
     61 H211         5.6500    -1.8510    -1.4730 hc         1 JN3       0.021033
     62 H212         4.7890    -2.9970    -2.4950 hc         1 JN3       0.021033
     63 H213         5.8320    -1.8010    -3.2240 hc         1 JN3       0.021033
     64 H221         3.6620     1.1660    -2.5620 hc         1 JN3       0.018200
     65 H222         5.1980     0.6560    -1.9000 hc         1 JN3       0.018200
     66 H231         5.5730     1.7200    -4.0270 hc         1 JN3       0.018200
     67 H232         5.9420     0.0350    -4.2430 hc         1 JN3       0.018200
@<TRIPOS>BOND
     1     1     2 1   
     2     1    12 1   
     3     1    29 1   
     4     1    30 1   
     5     2     3 1   
     6     2    31 1   
     7     2    32 1   
     8     3     4 1   
     9     3     5 1   
    10     3    33 1   
    11     4    34 1   
    12     5     6 1   
    13     5    35 1   
    14     5    36 1   
    15     6     7 1   
    16     6    12 1   
    17     6    37 1   
    18     7     8 1   
    19     7    38 1   
    20     7    39 1   
    21     8     9 1   
    22     8    10 1   
    23     8    40 1   
    24     9    41 1   
    25    10    11 1   
    26    10    16 1   
    27    10    42 1   
    28    11    12 1   
    29    11    13 1   
    30    11    43 1   
    31    12    21 1   
    32    13    14 1   
    33    13    44 1   
    34    13    45 1   
    35    14    15 1   
    36    14    46 1   
    37    14    47 1   
    38    15    16 1   
    39    15    19 1   
    40    15    20 1   
    41    16    17 1   
    42    16    48 1   
    43    17    18 1   
    44    17    49 1   
    45    17    50 1   
    46    18    19 1   
    47    18    51 1   
    48    18    52 1   
    49    19    22 1   
    50    19    53 1   
    51    20    54 1   
    52    20    55 1   
    53    20    56 1   
    54    21    57 1   
    55    21    58 1   
    56    21    59 1   
    57    22    23 1   
    58    22    24 1   
    59    22    60 1   
    60    23    61 1   
    61    23    62 1   
    62    23    63 1   
    63    24    25 1   
    64    24    64 1   
    65    24    65 1   
    66    25    27 1   
    67    25    66 1   
    68    25    67 1   
    69    26    27 1   
    70    27    28 1   
@<TRIPOS>SUBSTRUCTURE
     1 JN3         1 TEMP              0 ****  ****    0 ROOT
