@<TRIPOS>MOLECULE
JN3
   67    70     1     0     0
SMALL
No Charge or Current Charge


@<TRIPOS>ATOM
      1 C1           1.2000    -6.3140     2.7230 c6         1 JN3      -0.065400
      2 C2           1.8140    -5.7190     4.0130 c6         1 JN3      -0.106400
      3 C3           0.6980    -5.1910     4.9400 c6         1 JN3       0.165300
      4 O3           1.2720    -4.6210     6.1200 oh         1 JN3      -0.663000
      5 C4          -0.1560    -4.1370     4.2020 c6         1 JN3      -0.104400
      6 C5          -0.7670    -4.6990     2.8750 c6         1 JN3      -0.036700
      7 C6          -1.6650    -3.6430     2.1550 c6         1 JN3      -0.064400
      8 C7          -0.8790    -2.5040     1.4440 c6         1 JN3       0.180300
      9 O7          -0.4000    -1.5410     2.3910 oh         1 JN3      -0.676000
     10 C8           0.2670    -3.0610     0.5340 c6         1 JN3      -0.077700
     11 C9           1.1770    -4.1100     1.2780 c6         1 JN3      -0.037700
     12 C10          0.3220    -5.2990     1.9030 c6         1 JN3      -0.034000
     13 C11          2.3390    -4.5960     0.3420 c6         1 JN3      -0.072400
     14 C12          3.1510    -3.4290    -0.2900 c6         1 JN3      -0.062400
     15 C13          2.2460    -2.4270    -1.0780 c5         1 JN3      -0.035000
     16 C14          1.1510    -1.9270    -0.0790 c5         1 JN3      -0.075700
     17 C15          0.4300    -0.8270    -0.8960 c5         1 JN3      -0.076400
     18 C16          1.6040    -0.1220    -1.6430 c5         1 JN3      -0.083400
     19 C17          2.8840    -1.0120    -1.4010 c5         1 JN3      -0.043700
     20 C18          1.7080    -3.1450    -2.3650 c3         1 JN3      -0.078100
     21 C19         -0.3850    -6.1510     0.7860 c3         1 JN3      -0.083100
     22 C20          3.9540    -0.8770    -2.5500 c3         1 JN3      -0.052700
     23 C21          5.1570    -1.8450    -2.3940 c3         1 JN3      -0.080100
     24 C22          4.4410     0.6050    -2.6950 c3         1 JN3      -0.043400
     25 C23          5.3340     0.9620    -3.9200 c3         1 JN3      -0.209400
     26 O25          3.8680     1.4710    -5.7170 o          1 JN3      -0.744500
     27 C24          4.6340     0.6390    -5.2540 c          1 JN3       0.712000
     28 O26          4.8590    -0.4380    -5.7840 o          1 JN3      -0.744500
     29 H11          1.9930    -6.7470     2.1010 hc         1 JN3       0.037700
     30 H12          0.5780    -7.1720     3.0160 hc         1 JN3       0.037700
     31 H21          2.3890    -6.4960     4.5340 hc         1 JN3       0.044700
     32 H22          2.5270    -4.9210     3.7660 hc         1 JN3       0.044700
     33 H3           0.0460    -6.0350     5.2160 h1         1 JN3       0.061700
     34 HO3          1.8450    -3.8820     5.8210 ho         1 JN3       0.437000
     35 H41          0.4660    -3.2550     4.0110 hc         1 JN3       0.055700
     36 H42         -0.9660    -3.8000     4.8630 hc         1 JN3       0.055700
     37 H5          -1.4330    -5.5210     3.1750 hc         1 JN3       0.033700
     38 H61         -2.2920    -4.1490     1.4100 hc         1 JN3       0.043700
     39 H62         -2.3750    -3.2070     2.8710 hc         1 JN3       0.043700
     40 H7          -1.5950    -1.9940     0.7830 h1         1 JN3       0.027700
     41 HO7          0.1720    -0.9300     1.8830 ho         1 JN3       0.448000
     42 H8          -0.2270    -3.5610    -0.3070 hc         1 JN3       0.055700
     43 H9           1.6640    -3.5710     2.1000 hc         1 JN3       0.050700
     44 H111         1.9540    -5.2420    -0.4550 hc         1 JN3       0.032700
     45 H112         3.0450    -5.2130     0.9110 hc         1 JN3       0.032700
     46 H121         3.6930    -2.8990     0.5060 hc         1 JN3       0.039700
     47 H122         3.9140    -3.8660    -0.9400 hc         1 JN3       0.039700
     48 H14          1.6420    -1.4640     0.7870 hc         1 JN3       0.038700
     49 H151        -0.1220    -0.1300    -0.2560 hc         1 JN3       0.030700
     50 H152        -0.2970    -1.2520    -1.5980 hc         1 JN3       0.030700
     51 H161         1.3700    -0.0240    -2.7100 hc         1 JN3       0.064200
     52 H162         1.7560     0.8950    -1.2650 hc         1 JN3       0.064200
     53 H17          3.3970    -0.6470    -0.5020 hc         1 JN3       0.026700
     54 H181         1.0600    -3.9960    -2.1340 hc         1 JN3       0.034367
     55 H182         1.1310    -2.4760    -3.0130 hc         1 JN3       0.034367
     56 H183         2.5340    -3.5300    -2.9730 hc         1 JN3       0.034367
     57 H191        -1.0390    -6.9130     1.2270 hc         1 JN3       0.031367
     58 H192        -1.0110    -5.5580     0.1130 hc         1 JN3       0.031367
     59 H193         0.3390    -6.6900     0.1640 hc         1 JN3       0.031367
     60 H20          3.4600    -1.1450    -3.4910 hc         1 JN3       0.081700
     61 H211         5.5820    -1.7860    -1.3850 hc         1 JN3       0.021033
     62 H212         4.8520    -2.8760    -2.5950 hc         1 JN3       0.021033
     63 H213         5.9540    -1.6320    -3.1120 hc         1 JN3       0.021033
     64 H221         3.5710     1.2690    -2.7430 hc         1 JN3       0.018200
     65 H222         4.9790     0.8840    -1.7800 hc         1 JN3       0.018200
     66 H231         5.4820     2.0460    -3.8380 hc         1 JN3       0.018200
     67 H232         6.2710     0.4030    -3.8230 hc         1 JN3       0.018200
@<TRIPOS>BOND
     1     1     2 1   
     2     1    12 1   
     3     1    29 1   
     4     1    30 1   
     5     2     3 1   
     6     2    31 1   
     7     2    32 1   
     8     3     4 1   
     9     3     5 1   
    10     3    33 1   
    11     4    34 1   
    12     5     6 1   
    13     5    35 1   
    14     5    36 1   
    15     6     7 1   
    16     6    12 1   
    17     6    37 1   
    18     7     8 1   
    19     7    38 1   
    20     7    39 1   
    21     8     9 1   
    22     8    10 1   
    23     8    40 1   
    24     9    41 1   
    25    10    11 1   
    26    10    16 1   
    27    10    42 1   
    28    11    12 1   
    29    11    13 1   
    30    11    43 1   
    31    12    21 1   
    32    13    14 1   
    33    13    44 1   
    34    13    45 1   
    35    14    15 1   
    36    14    46 1   
    37    14    47 1   
    38    15    16 1   
    39    15    19 1   
    40    15    20 1   
    41    16    17 1   
    42    16    48 1   
    43    17    18 1   
    44    17    49 1   
    45    17    50 1   
    46    18    19 1   
    47    18    51 1   
    48    18    52 1   
    49    19    22 1   
    50    19    53 1   
    51    20    54 1   
    52    20    55 1   
    53    20    56 1   
    54    21    57 1   
    55    21    58 1   
    56    21    59 1   
    57    22    23 1   
    58    22    24 1   
    59    22    60 1   
    60    23    61 1   
    61    23    62 1   
    62    23    63 1   
    63    24    25 1   
    64    24    64 1   
    65    24    65 1   
    66    25    27 1   
    67    25    66 1   
    68    25    67 1   
    69    26    27 1   
    70    27    28 1   
@<TRIPOS>SUBSTRUCTURE
     1 JN3         1 TEMP              0 ****  ****    0 ROOT
