@<TRIPOS>MOLECULE
JN4
   50    52     1     0     0
SMALL
bcc


@<TRIPOS>ATOM
      1 C1           4.4200     0.6100     1.5270 c6         1 JN4       0.097000
      2 N2           4.2990    -0.7850     1.1330 n          1 JN4      -0.470800
      3 C3           3.0180    -1.3380     1.5260 c6         1 JN4       0.184300
      4 C4           1.9290    -0.4110     1.0700 cc         1 JN4      -0.185400
      5 C5           2.1040     0.8750     0.6880 cd         1 JN4       0.001700
      6 C6           3.4680     1.5020     0.7360 c6         1 JN4      -0.047100
      7 C7           5.0570    -1.2260     0.0850 c          1 JN4       0.793100
      8 O8           5.9100    -0.5230    -0.4390 o          1 JN4      -0.623100
      9 N9           4.8510    -2.5180    -0.3230 ns         1 JN4      -0.500100
     10 C10          5.5460    -3.0880    -1.3760 c2         1 JN4       0.002600
     11 C11          5.4000    -4.3490    -1.7780 c2         1 JN4      -0.320000
     12 S12          0.2830    -0.9220     0.9880 ss         1 JN4       0.035200
     13 C13         -0.2100     0.6270     0.4180 cc         1 JN4       0.153500
     14 C14          0.8640     1.4940     0.2880 cd         1 JN4      -0.248600
     15 C15          0.8150     2.8620    -0.2180 c          1 JN4       0.698700
     16 O16         -0.4480     3.2860    -0.4500 os         1 JN4      -0.396200
     17 C17         -0.6760     4.5400    -0.9630 c2         1 JN4       0.030100
     18 C18         -1.9130     4.9360    -1.2080 c2         1 JN4      -0.267000
     19 O19          1.7740     3.5600    -0.4230 o          1 JN4      -0.518000
     20 N20         -1.5290     0.8800     0.1450 ns         1 JN4      -0.450100
     21 C21         -2.5440    -0.0250     0.2600 c          1 JN4       0.664100
     22 C22         -3.9020     0.5340    -0.1030 c3         1 JN4      -0.103100
     23 C23         -4.9850    -0.4990    -0.0260 ca         1 JN4      -0.081300
     24 C24         -5.6750    -0.7120     1.1640 ca         1 JN4      -0.108500
     25 C25         -5.3030    -1.2730    -1.1370 ca         1 JN4      -0.108500
     26 C26         -6.2940    -2.2430    -1.0620 ca         1 JN4      -0.126000
     27 C27         -6.9780    -2.4490     0.1290 ca         1 JN4      -0.118000
     28 C28         -6.6670    -1.6800     1.2420 ca         1 JN4      -0.126000
     29 O29         -2.3450    -1.1650     0.6230 o          1 JN4      -0.552100
     30 H1           4.1780     0.6660     2.5910 h1         1 JN4       0.066700
     31 H1A          5.4480     0.9430     1.4120 h1         1 JN4       0.066700
     32 H3           2.8550    -2.3340     1.1210 h1         1 JN4       0.056200
     33 H3A          2.9970    -1.4520     2.6140 h1         1 JN4       0.056200
     34 H6           3.4270     2.4810     1.2140 hc         1 JN4       0.080200
     35 H6A          3.8500     1.6670    -0.2740 hc         1 JN4       0.080200
     36 HN9          4.2210    -3.1220     0.1800 hn         1 JN4       0.313500
     37 H10          6.2360    -2.4190    -1.8710 h4         1 JN4       0.162000
     38 H11          5.9790    -4.7150    -2.6120 ha         1 JN4       0.120500
     39 H11A         4.7160    -5.0390    -1.3010 ha         1 JN4       0.120500
     40 H17          0.1980     5.1510    -1.1420 h4         1 JN4       0.158000
     41 H18         -2.7790     4.3160    -1.0230 ha         1 JN4       0.127500
     42 H18A        -2.0770     5.9240    -1.6120 ha         1 JN4       0.127500
     43 HN20        -1.7490     1.8170    -0.1570 hn         1 JN4       0.351500
     44 H22         -4.1170     1.3710     0.5680 hc         1 JN4       0.072700
     45 H22A        -3.8420     0.9600    -1.1090 hc         1 JN4       0.072700
     46 H24         -5.4390    -0.1110     2.0350 ha         1 JN4       0.129000
     47 H25         -4.7760    -1.1150    -2.0710 ha         1 JN4       0.129000
     48 H26         -6.5330    -2.8370    -1.9350 ha         1 JN4       0.133000
     49 H27         -7.7530    -3.2020     0.1870 ha         1 JN4       0.133000
     50 H28         -7.1980    -1.8310     2.1730 ha         1 JN4       0.133000
@<TRIPOS>BOND
     1     1     2 1   
     2     1     6 1   
     3     1    30 1   
     4     1    31 1   
     5     2     3 1   
     6     2     7 1   
     7     3     4 1   
     8     3    32 1   
     9     3    33 1   
    10     4     5 2   
    11     4    12 1   
    12     5     6 1   
    13     5    14 1   
    14     6    34 1   
    15     6    35 1   
    16     7     8 2   
    17     7     9 1   
    18     9    10 1   
    19     9    36 1   
    20    10    11 2   
    21    10    37 1   
    22    11    38 1   
    23    11    39 1   
    24    12    13 1   
    25    13    14 2   
    26    13    20 1   
    27    14    15 1   
    28    15    16 1   
    29    15    19 2   
    30    16    17 1   
    31    17    18 2   
    32    17    40 1   
    33    18    41 1   
    34    18    42 1   
    35    20    21 1   
    36    20    43 1   
    37    21    22 1   
    38    21    29 2   
    39    22    23 1   
    40    22    44 1   
    41    22    45 1   
    42    23    24 ar  
    43    23    25 ar  
    44    24    28 ar  
    45    24    46 1   
    46    25    26 ar  
    47    25    47 1   
    48    26    27 ar  
    49    26    48 1   
    50    27    28 ar  
    51    27    49 1   
    52    28    50 1   
@<TRIPOS>SUBSTRUCTURE
     1 JN4         1 TEMP              0 ****  ****    0 ROOT
