@<TRIPOS>MOLECULE
JN4
   50    52     1     0     0
SMALL
No Charge or Current Charge


@<TRIPOS>ATOM
      1 C1           4.3700     0.7460    -0.1440 c6         1 JN4       0.097000
      2 N2           4.3860    -0.7370    -0.0260 n          1 JN4      -0.403800
      3 C3           3.2750    -1.3160     0.7790 c6         1 JN4       0.184300
      4 C4           2.0080    -0.4960     0.7340 cc         1 JN4      -0.330300
      5 C5           1.8540     0.6860     0.0560 cd         1 JN4       0.001700
      6 C6           3.0300     1.2900    -0.6830 c6         1 JN4      -0.047100
      7 C7           5.5030    -1.4910    -0.4430 c          1 JN4       0.659100
      8 O8           6.4510    -0.9840    -1.0260 o          1 JN4      -0.623100
      9 N9           5.4750    -2.8400    -0.1560 ns         1 JN4      -0.433100
     10 C10          6.4570    -3.7930    -0.4620 c2         1 JN4      -0.047400
     11 C11          6.3250    -5.0830    -0.1320 c2         1 JN4      -0.420000
     12 S12          0.5280    -0.9790     1.5310 ss         1 JN4       0.325000
     13 C13         -0.3180     0.4380     0.8930 cc         1 JN4       0.008600
     14 C14          0.5200     1.2320     0.1110 cd         1 JN4      -0.248600
     15 C15          0.0750     2.4880    -0.6010 c          1 JN4       0.649700
     16 O16         -1.2350     2.8650    -0.3870 os         1 JN4      -0.396200
     17 C17         -1.7900     3.9690    -0.9830 c2         1 JN4      -0.019900
     18 C18         -3.0500     4.3290    -0.7120 c2         1 JN4      -0.367000
     19 O19          0.8140     3.1360    -1.3290 o          1 JN4      -0.469000
     20 N20         -1.6610     0.7310     1.1220 ns         1 JN4      -0.383100
     21 C21         -2.6100     0.0170     1.8280 c          1 JN4       0.597100
     22 C22         -4.0070     0.6480     1.8300 c3         1 JN4      -0.103100
     23 C23         -4.8870     0.0040     0.7630 ca         1 JN4      -0.081300
     24 C24         -5.7330    -1.0730     1.0940 ca         1 JN4      -0.090500
     25 C25         -4.8550     0.4750    -0.5640 ca         1 JN4      -0.090500
     26 C26         -5.6610    -0.1220    -1.5490 ca         1 JN4      -0.108000
     27 C27         -6.5040    -1.1940    -1.2130 ca         1 JN4      -0.100000
     28 C28         -6.5400    -1.6700     0.1090 ca         1 JN4      -0.108000
     29 O29         -2.3770    -1.0450     2.3900 o          1 JN4      -0.552100
     30 H1           4.5520     1.1720     0.8530 h1         1 JN4       0.066700
     31 H1A          5.1820     1.0990    -0.7950 h1         1 JN4       0.066700
     32 H3           3.0420    -2.3250     0.4100 h1         1 JN4       0.056200
     33 H3A          3.6150    -1.4220     1.8200 h1         1 JN4       0.056200
     34 H6           3.0520     2.3820    -0.5800 hc         1 JN4       0.080200
     35 H6A          2.9500     1.0710    -1.7550 hc         1 JN4       0.080200
     36 HN9          4.6500    -3.1610     0.3300 hn         1 JN4       0.313500
     37 H10          7.3320    -3.3950    -0.9890 h4         1 JN4       0.212000
     38 H11          7.0980    -5.8130    -0.3780 ha         1 JN4       0.170500
     39 H11A         5.4450    -5.4600     0.3920 ha         1 JN4       0.170500
     40 H17         -1.1490     4.5220    -1.6780 h4         1 JN4       0.208000
     41 H18         -3.6710     3.7660    -0.0140 ha         1 JN4       0.177500
     42 H18A        -3.5040     5.2030    -1.1790 ha         1 JN4       0.177500
     43 HN20        -2.0170     1.5820     0.7000 hn         1 JN4       0.351500
     44 H22         -4.4570     0.5020     2.8190 hc         1 JN4       0.072700
     45 H22A        -3.9300     1.7210     1.6210 hc         1 JN4       0.072700
     46 H24         -5.7650    -1.4510     2.1130 ha         1 JN4       0.111000
     47 H25         -4.2050     1.3040    -0.8380 ha         1 JN4       0.111000
     48 H26         -5.6320     0.2470    -2.5720 ha         1 JN4       0.115000
     49 H27         -7.1280    -1.6560    -1.9750 ha         1 JN4       0.115000
     50 H28         -7.1910    -2.5010     0.3700 ha         1 JN4       0.115000
@<TRIPOS>BOND
     1     1     2 1   
     2     1     6 1   
     3     1    30 1   
     4     1    31 1   
     5     2     3 1   
     6     2     7 1   
     7     3     4 1   
     8     3    32 1   
     9     3    33 1   
    10     4     5 2   
    11     4    12 1   
    12     5     6 1   
    13     5    14 1   
    14     6    34 1   
    15     6    35 1   
    16     7     8 2   
    17     7     9 1   
    18     9    10 1   
    19     9    36 1   
    20    10    11 2   
    21    10    37 1   
    22    11    38 1   
    23    11    39 1   
    24    12    13 1   
    25    13    14 2   
    26    13    20 1   
    27    14    15 1   
    28    15    16 1   
    29    15    19 2   
    30    16    17 1   
    31    17    18 2   
    32    17    40 1   
    33    18    41 1   
    34    18    42 1   
    35    20    21 1   
    36    20    43 1   
    37    21    22 1   
    38    21    29 2   
    39    22    23 1   
    40    22    44 1   
    41    22    45 1   
    42    23    24 ar  
    43    23    25 ar  
    44    24    28 ar  
    45    24    46 1   
    46    25    26 ar  
    47    25    47 1   
    48    26    27 ar  
    49    26    48 1   
    50    27    28 ar  
    51    27    49 1   
    52    28    50 1   
@<TRIPOS>SUBSTRUCTURE
     1 JN4         1 TEMP              0 ****  ****    0 ROOT
