@<TRIPOS>MOLECULE
JN5
   43    46     1     0     0
SMALL
No Charge or Current Charge


@<TRIPOS>ATOM
      1 C1W         -6.2530     1.9130    -0.2940 ca         1 JN5      -0.069000
      2 C1X         -7.5650     2.0620    -0.7750 ca         1 JN5      -0.162000
      3 C1Y         -8.5330     1.1010    -0.4390 ca         1 JN5       0.336900
      4 N1Z         -8.2620     0.0230     0.3340 nb         1 JN5      -0.662000
      5 C2A         -6.9970    -0.1180     0.7960 ca         1 JN5       0.343900
      6 C1V         -5.9620     0.7970     0.5110 ca         1 JN5      -0.136300
      7 C1U         -4.5550     0.5790     1.0570 c3         1 JN5      -0.044100
      8 C1T         -3.6420    -0.1310     0.0370 c3         1 JN5       0.236800
      9 N1S         -2.2900    -0.3340     0.5910 nu         1 JN5      -0.919100
     10 C2          -1.2090    -0.9370    -0.0340 ca         1 JN5       0.390900
     11 N3          -0.0810    -0.9890     0.6940 nb         1 JN5      -0.247000
     12 N1          -1.3850    -1.4050    -1.2840 nb         1 JN5      -0.238000
     13 C6          -0.3160    -1.9830    -1.8620 ca         1 JN5       0.158900
     14 C5           0.9120    -2.0880    -1.1890 ca         1 JN5      -0.273000
     15 C4           0.9930    -1.5700     0.1200 ca         1 JN5       0.161300
     16 C1J          2.2720    -1.6080     0.9520 c3         1 JN5      -0.070200
     17 C1K          2.8880    -2.9360     0.9210 c1         1 JN5       0.301900
     18 N1L          3.4020    -3.9800     0.8910 n1         1 JN5      -0.433000
     19 C1I          3.2310    -0.5170     0.5660 cc         1 JN5       0.392200
     20 N1G          3.5740     0.4550     1.4260 nd         1 JN5      -0.509100
     21 C1E          4.4640     1.2970     0.7710 ca         1 JN5       0.088400
     22 C1C          5.0390     2.4340     1.3600 ca         1 JN5      -0.050000
     23 C1A          5.9330     3.2260     0.6100 ca         1 JN5      -0.113000
     24 C1B          6.2450     2.8750    -0.7210 ca         1 JN5      -0.096000
     25 C1D          5.6630     1.7330    -1.3030 ca         1 JN5      -0.074000
     26 C1F          4.7770     0.9650    -0.5320 ca         1 JN5      -0.180000
     27 S1H          3.9490    -0.4870    -1.0660 ss         1 JN5       0.049800
     28 H1W         -5.4860     2.6440    -0.5420 ha         1 JN5       0.118000
     29 H1X         -7.8340     2.9090    -1.4000 ha         1 JN5       0.125000
     30 H1Y         -9.5570     1.1950    -0.8000 h4         1 JN5       0.020100
     31 H2A         -6.8080    -0.9960     1.4140 h4         1 JN5       0.019100
     32 H1U         -4.1080     1.5420     1.3300 hc         1 JN5       0.056200
     33 H1UA        -4.5970    -0.0170     1.9770 hc         1 JN5       0.056200
     34 H1T         -4.0880    -1.0990    -0.2300 h1         1 JN5       0.058700
     35 H1TA        -3.5860     0.4760    -0.8780 h1         1 JN5       0.058700
     36 HN1S        -2.1080     0.0070     1.5360 hn         1 JN5       0.506000
     37 H6          -0.4460    -2.3630    -2.8740 h4         1 JN5       0.026100
     38 H5           1.7630    -2.5580    -1.6770 ha         1 JN5       0.146000
     39 H1J          2.0040    -1.4470     2.0020 hc         1 JN5       0.127700
     40 H1C          4.7960     2.7010     2.3860 ha         1 JN5       0.134000
     41 H1A          6.3830     4.1080     1.0590 ha         1 JN5       0.119000
     42 H1B          6.9350     3.4880    -1.2980 ha         1 JN5       0.117000
     43 H1D          5.8960     1.4540    -2.3290 ha         1 JN5       0.126000
@<TRIPOS>BOND
     1     1     2 ar  
     2     1     6 ar  
     3     1    28 1   
     4     2     3 ar  
     5     2    29 1   
     6     3     4 ar  
     7     3    30 1   
     8     4     5 ar  
     9     5     6 ar  
    10     5    31 1   
    11     6     7 1   
    12     7     8 1   
    13     7    32 1   
    14     7    33 1   
    15     8     9 1   
    16     8    34 1   
    17     8    35 1   
    18     9    10 1   
    19     9    36 1   
    20    10    11 ar  
    21    10    12 ar  
    22    11    15 ar  
    23    12    13 ar  
    24    13    14 ar  
    25    13    37 1   
    26    14    15 ar  
    27    14    38 1   
    28    15    16 1   
    29    16    17 1   
    30    16    19 1   
    31    16    39 1   
    32    17    18 3   
    33    19    20 2   
    34    19    27 1   
    35    20    21 1   
    36    21    22 ar  
    37    21    26 ar  
    38    22    23 ar  
    39    22    40 1   
    40    23    24 ar  
    41    23    41 1   
    42    24    25 ar  
    43    24    42 1   
    44    25    26 ar  
    45    25    43 1   
    46    26    27 1   
@<TRIPOS>SUBSTRUCTURE
     1 JN5         1 TEMP              0 ****  ****    0 ROOT
