@<TRIPOS>MOLECULE
JN5
   43    46     1     0     0
SMALL
bcc


@<TRIPOS>ATOM
      1 C1W         -5.6250     2.1550    -0.3770 ca         1 JN5      -0.087000
      2 C1X         -6.8820     2.3760    -0.9170 ca         1 JN5      -0.245300
      3 C1Y         -7.8960     1.4780    -0.6220 ca         1 JN5       0.402200
      4 N1Z         -7.7190     0.4170     0.1580 nb         1 JN5      -0.662000
      5 C2A         -6.5110     0.2190     0.6700 ca         1 JN5       0.409200
      6 C1V         -5.4190     1.0500     0.4420 ca         1 JN5      -0.201600
      7 C1U         -4.0710     0.7370     1.0200 c3         1 JN5      -0.044100
      8 C1T         -3.2170    -0.0350     0.0180 c3         1 JN5       0.236800
      9 N1S         -1.9090    -0.2910     0.5730 nu         1 JN5      -0.863900
     10 C2          -1.0410    -1.1860     0.0790 ca         1 JN5       0.916900
     11 N3           0.1790    -1.2110     0.6320 nb         1 JN5      -0.773000
     12 N1          -1.4500    -1.9870    -0.9150 nb         1 JN5      -0.764000
     13 C6          -0.5760    -2.8700    -1.3550 ca         1 JN5       0.487200
     14 C5           0.7130    -2.9880    -0.8500 ca         1 JN5      -0.421600
     15 C4           1.0300    -2.1000     0.1630 ca         1 JN5       0.489600
     16 C1J          2.4040    -2.0250     0.8080 c3         1 JN5      -0.070200
     17 C1K          3.2840    -3.1200     0.4130 c1         1 JN5       0.212700
     18 N1L          3.9890    -3.9740     0.1070 n1         1 JN5      -0.343800
     19 C1I          3.0560    -0.7030     0.4970 cc         1 JN5       0.392200
     20 N1G          3.4450     0.1210     1.3960 nd         1 JN5      -0.509100
     21 C1E          3.9890     1.2490     0.8240 ca         1 JN5       0.088400
     22 C1C          4.5010     2.3430     1.5220 ca         1 JN5      -0.068000
     23 C1A          5.0100     3.4060     0.8040 ca         1 JN5      -0.131000
     24 C1B          5.0170     3.3940    -0.5970 ca         1 JN5      -0.114000
     25 C1D          4.5150     2.3190    -1.3060 ca         1 JN5      -0.092000
     26 C1F          4.0020     1.2500    -0.5800 ca         1 JN5      -0.053100
     27 S1H          3.3000    -0.2210    -1.1600 ss         1 JN5      -0.077100
     28 H1W         -4.8120     2.8400    -0.5850 ha         1 JN5       0.136000
     29 H1X         -7.0770     3.2290    -1.5530 ha         1 JN5       0.143000
     30 H1Y         -8.8910     1.6210    -1.0280 h4         1 JN5       0.020100
     31 H2A         -6.3960    -0.6520     1.3080 h4         1 JN5       0.019100
     32 H1U         -3.5640     1.6660     1.2960 hc         1 JN5       0.056200
     33 H1UA        -4.1790     0.1470     1.9330 hc         1 JN5       0.056200
     34 H1T         -3.6990    -0.9840    -0.2220 h1         1 JN5       0.058700
     35 H1TA        -3.1440     0.5290    -0.9180 h1         1 JN5       0.058700
     36 HN1S        -1.5330     0.3710     1.2340 hn         1 JN5       0.450800
     37 H6          -0.9070    -3.5190    -2.1580 h4         1 JN5       0.026100
     38 H5           1.4030    -3.7180    -1.2440 ha         1 JN5       0.164000
     39 H1J          2.2840    -2.0760     1.8940 hc         1 JN5       0.127700
     40 H1C          4.4920     2.3460     2.6040 ha         1 JN5       0.152000
     41 H1A          5.4120     4.2630     1.3280 ha         1 JN5       0.137000
     42 H1B          5.4230     4.2410    -1.1340 ha         1 JN5       0.135000
     43 H1D          4.5210     2.3120    -2.3870 ha         1 JN5       0.144000
@<TRIPOS>BOND
     1     1     2 ar  
     2     1     6 ar  
     3     1    28 1   
     4     2     3 ar  
     5     2    29 1   
     6     3     4 ar  
     7     3    30 1   
     8     4     5 ar  
     9     5     6 ar  
    10     5    31 1   
    11     6     7 1   
    12     7     8 1   
    13     7    32 1   
    14     7    33 1   
    15     8     9 1   
    16     8    34 1   
    17     8    35 1   
    18     9    10 1   
    19     9    36 1   
    20    10    11 ar  
    21    10    12 ar  
    22    11    15 ar  
    23    12    13 ar  
    24    13    14 ar  
    25    13    37 1   
    26    14    15 ar  
    27    14    38 1   
    28    15    16 1   
    29    16    17 1   
    30    16    19 1   
    31    16    39 1   
    32    17    18 3   
    33    19    20 2   
    34    19    27 1   
    35    20    21 1   
    36    21    22 ar  
    37    21    26 ar  
    38    22    23 ar  
    39    22    40 1   
    40    23    24 ar  
    41    23    41 1   
    42    24    25 ar  
    43    24    42 1   
    44    25    26 ar  
    45    25    43 1   
    46    26    27 1   
@<TRIPOS>SUBSTRUCTURE
     1 JN5         1 TEMP              0 ****  ****    0 ROOT
