@<TRIPOS>MOLECULE
JN6
   49    52     1     0     0
SMALL
bcc


@<TRIPOS>ATOM
      1 C6          14.1170    38.3540   -14.4150 c          1 JN6       0.716700
      2 C8          10.1580    36.3180    -9.2360 cc         1 JN6       0.140400
      3 C13         16.3220    36.6540   -16.8300 cc         1 JN6       0.318200
      4 C15         12.1640    38.9620   -12.1840 cc         1 JN6      -0.296300
      5 C17         11.2950    39.0420   -11.1460 cd         1 JN6      -0.024300
      6 C22         16.2570    39.9850   -15.8350 c3         1 JN6       0.040600
      7 C24          8.7350    36.1660    -7.1960 ca         1 JN6      -0.104500
      8 C26         14.0620    32.9750   -16.4130 c3         1 JN6       0.097000
      9 C28          8.8030    33.3980    -7.3050 ca         1 JN6      -0.136000
     10 C1          11.4530    36.6840   -10.8930 cd         1 JN6       0.424500
     11 C2          15.0880    37.7730   -15.3830 cd         1 JN6      -0.102900
     12 C3          15.2770    36.4930   -15.9090 cc         1 JN6      -0.316900
     13 N4          12.3100    36.5840   -11.9090 nd         1 JN6      -0.684000
     14 N5          10.9850    35.7180   -10.1400 nc         1 JN6      -0.274600
     15 N7          10.9390    37.9110   -10.4950 na         1 JN6      -0.134100
     16 C9          12.6650    37.6750   -12.5390 cc         1 JN6       0.583200
     17 N10         15.9910    38.5660   -16.0020 na         1 JN6       0.158400
     18 N11         16.7420    37.8990   -16.8620 nd         1 JN6      -0.506800
     19 C12         10.1080    37.6770    -9.4330 cd         1 JN6      -0.224100
     20 N14         13.5740    37.4560   -13.5570 ns         1 JN6      -0.553400
     21 C16         14.6090    35.2170   -15.5870 c          1 JN6       0.714700
     22 O18         13.8710    39.5450   -14.4240 o          1 JN6      -0.595100
     23 C19          9.4480    35.5390    -8.2220 ca         1 JN6      -0.023800
     24 O20         14.1140    34.9930   -14.4800 o          1 JN6      -0.609100
     25 N21         14.5980    34.3090   -16.5670 ns         1 JN6      -0.554900
     26 O23         14.5070    30.7370   -15.7960 oh         1 JN6      -0.595800
     27 C25          9.4740    34.1440    -8.2610 ca         1 JN6      -0.104500
     28 C27         15.1010    32.0120   -15.8570 c3         1 JN6       0.118400
     29 C29          8.0640    35.4180    -6.2420 ca         1 JN6      -0.136000
     30 C30          8.0950    34.0290    -6.2920 ca         1 JN6      -0.122000
     31 H1          16.8000    35.9040   -17.4420 h4         1 JN6       0.043100
     32 H2          12.4540    39.8570   -12.7050 ha         1 JN6       0.186000
     33 H3          10.8660    39.9730   -10.8020 h4         1 JN6       0.165000
     34 H4          17.2030    40.1840   -16.3280 h1         1 JN6       0.071700
     35 H5          15.4770    40.5860   -16.2930 h1         1 JN6       0.071700
     36 H6          16.3410    40.2420   -14.7840 h1         1 JN6       0.071700
     37 H7           8.7060    37.2460    -7.1340 ha         1 JN6       0.140000
     38 H8          13.1860    33.0040   -15.7650 h1         1 JN6       0.072200
     39 H9          13.7330    32.6380   -17.3960 h1         1 JN6       0.072200
     40 H10          8.8330    32.3160    -7.3530 ha         1 JN6       0.129500
     41 H11          9.5740    38.4720    -8.9410 h4         1 JN6       0.182000
     42 H12         13.8190    36.4630   -13.6980 hn         1 JN6       0.398500
     43 H13         14.9710    34.5550   -17.4700 hn         1 JN6       0.321500
     44 H14         15.1500    30.1210   -15.4350 ho         1 JN6       0.411000
     45 H15         10.0220    33.6440    -9.0490 ha         1 JN6       0.140000
     46 H16         15.4250    32.3610   -14.8690 h1         1 JN6       0.026700
     47 H17         15.9830    32.0240   -16.5090 h1         1 JN6       0.026700
     48 H18          7.5190    35.9210    -5.4550 ha         1 JN6       0.129500
     49 H19          7.5710    33.4460    -5.5450 ha         1 JN6       0.129000
@<TRIPOS>BOND
     1     1    11 1   
     2     1    20 1   
     3     1    22 2   
     4     2    14 1   
     5     2    19 2   
     6     2    23 1   
     7     3    12 1   
     8     3    18 2   
     9     3    31 1   
    10     4     5 2   
    11     4    16 1   
    12     4    32 1   
    13     5    15 1   
    14     5    33 1   
    15     6    17 1   
    16     6    34 1   
    17     6    35 1   
    18     6    36 1   
    19     7    23 ar  
    20     7    29 ar  
    21     7    37 1   
    22     8    25 1   
    23     8    28 1   
    24     8    38 1   
    25     8    39 1   
    26     9    27 ar  
    27     9    30 ar  
    28     9    40 1   
    29    10    13 1   
    30    10    14 2   
    31    10    15 1   
    32    11    12 2   
    33    11    17 1   
    34    12    21 1   
    35    13    16 2   
    36    15    19 1   
    37    16    20 1   
    38    17    18 1   
    39    19    41 1   
    40    20    42 1   
    41    21    24 2   
    42    21    25 1   
    43    23    27 ar  
    44    25    43 1   
    45    26    28 1   
    46    26    44 1   
    47    27    45 1   
    48    28    46 1   
    49    28    47 1   
    50    29    30 ar  
    51    29    48 1   
    52    30    49 1   
@<TRIPOS>SUBSTRUCTURE
     1 JN6         1 TEMP              0 ****  ****    0 ROOT
