@<TRIPOS>MOLECULE
JN6
   49    52     1     0     0
SMALL
No Charge or Current Charge


@<TRIPOS>ATOM
      1 C6          14.3170    38.3620   -14.2540 c          1 JN6       0.649700
      2 C8          10.2570    36.2130    -9.2590 cc         1 JN6       0.140400
      3 C13         16.0450    36.7660   -17.1460 cc         1 JN6       0.252900
      4 C15         12.1920    38.8940   -12.0660 cc         1 JN6      -0.213000
      5 C17         11.3480    39.0280   -10.9720 cd         1 JN6      -0.057000
      6 C22         16.2800    40.0770   -16.0350 c3         1 JN6       0.069900
      7 C24          8.9140    36.1220    -7.1320 ca         1 JN6      -0.086500
      8 C26         14.3210    32.9090   -16.5590 c3         1 JN6       0.097000
      9 C28          8.5260    33.3600    -7.4530 ca         1 JN6      -0.118000
     10 C1          11.5560    36.6220   -10.9020 cd         1 JN6       0.424500
     11 C2          15.0860    37.8550   -15.4500 cd         1 JN6      -0.153600
     12 C3          15.1540    36.6060   -16.0720 cc         1 JN6      -0.251600
     13 N4          12.3860    36.4330   -11.9860 nd         1 JN6      -0.684000
     14 N5          11.0570    35.6150   -10.2130 nc         1 JN6      -0.274600
     15 N7          11.1010    37.8020   -10.3770 na         1 JN6      -0.083400
     16 C9          12.6980    37.6060   -12.5180 cc         1 JN6       0.517900
     17 N10         15.9560    38.6520   -16.2270 na         1 JN6       0.179800
     18 N11         16.5460    37.9680   -17.2730 nd         1 JN6      -0.506800
     19 C12         10.2300    37.5930    -9.3380 cd         1 JN6      -0.274100
     20 N14         13.5280    37.4610   -13.5970 ns         1 JN6      -0.486400
     21 C16         14.4920    35.3030   -15.7820 c          1 JN6       0.647700
     22 O18         14.4140    39.5190   -13.8770 o          1 JN6      -0.595100
     23 C19          9.4580    35.4760    -8.2670 ca         1 JN6      -0.023800
     24 O20         13.7160    35.1030   -14.8650 o          1 JN6      -0.609100
     25 N21         14.8230    34.2880   -16.6520 ns         1 JN6      -0.487900
     26 O23         14.4700    30.7620   -15.3950 oh         1 JN6      -0.658000
     27 C25          9.2650    34.0830    -8.4060 ca         1 JN6      -0.086500
     28 C27         14.9590    32.1110   -15.3980 c3         1 JN6       0.141600
     29 C29          8.1750    35.3970    -6.1800 ca         1 JN6      -0.118000
     30 C30          7.9770    34.0170    -6.3410 ca         1 JN6      -0.104000
     31 H1          16.3570    36.0190   -17.8640 h4         1 JN6       0.043100
     32 H2          12.4510    39.7900   -12.6110 ha         1 JN6       0.168000
     33 H3          10.9100    39.9360   -10.5720 h4         1 JN6       0.147000
     34 H4          16.9890    40.4080   -16.8030 h1         1 JN6       0.071700
     35 H5          15.3650    40.6740   -16.1110 h1         1 JN6       0.071700
     36 H6          16.7320    40.2200   -15.0470 h1         1 JN6       0.071700
     37 H7           9.0630    37.1860    -6.9730 ha         1 JN6       0.122000
     38 H8          13.2310    32.9340   -16.4260 h1         1 JN6       0.072200
     39 H9          14.5320    32.3960   -17.5070 h1         1 JN6       0.072200
     40 H10          8.3800    32.2900    -7.5780 ha         1 JN6       0.111500
     41 H11          9.7010    38.3680    -8.7930 h4         1 JN6       0.232000
     42 H12         13.6120    36.5120   -13.9300 hn         1 JN6       0.398500
     43 H13         15.4670    34.5130   -17.3990 hn         1 JN6       0.321500
     44 H14         14.9000    30.3020   -14.6390 ho         1 JN6       0.450000
     45 H15          9.6830    33.5530    -9.2590 ha         1 JN6       0.122000
     46 H16         14.7230    32.6030   -14.4450 h1         1 JN6       0.026700
     47 H17         16.0510    32.1180   -15.5180 h1         1 JN6       0.026700
     48 H18          7.7590    35.9070    -5.3140 ha         1 JN6       0.111500
     49 H19          7.4060    33.4580    -5.6030 ha         1 JN6       0.111000
@<TRIPOS>BOND
     1     1    11 1   
     2     1    20 1   
     3     1    22 2   
     4     2    14 1   
     5     2    19 2   
     6     2    23 1   
     7     3    12 1   
     8     3    18 2   
     9     3    31 1   
    10     4     5 2   
    11     4    16 1   
    12     4    32 1   
    13     5    15 1   
    14     5    33 1   
    15     6    17 1   
    16     6    34 1   
    17     6    35 1   
    18     6    36 1   
    19     7    23 ar  
    20     7    29 ar  
    21     7    37 1   
    22     8    25 1   
    23     8    28 1   
    24     8    38 1   
    25     8    39 1   
    26     9    27 ar  
    27     9    30 ar  
    28     9    40 1   
    29    10    13 1   
    30    10    14 2   
    31    10    15 1   
    32    11    12 2   
    33    11    17 1   
    34    12    21 1   
    35    13    16 2   
    36    15    19 1   
    37    16    20 1   
    38    17    18 1   
    39    19    41 1   
    40    20    42 1   
    41    21    24 2   
    42    21    25 1   
    43    23    27 ar  
    44    25    43 1   
    45    26    28 1   
    46    26    44 1   
    47    27    45 1   
    48    28    46 1   
    49    28    47 1   
    50    29    30 ar  
    51    29    48 1   
    52    30    49 1   
@<TRIPOS>SUBSTRUCTURE
     1 JN6         1 TEMP              0 ****  ****    0 ROOT
