@<TRIPOS>MOLECULE
JN7
   55    58     1     0     0
SMALL
No Charge or Current Charge


@<TRIPOS>ATOM
      1 C1          -2.4000     0.9570    -1.1250 c6         1 JN7      -0.037100
      2 C2          -3.5150     0.0900    -1.7490 c6         1 JN7       0.103000
      3 N3          -3.9290    -1.0200    -0.8570 n          1 JN7      -0.392800
      4 C4          -2.8320    -1.9450    -0.4690 c6         1 JN7       0.193300
      5 C5          -1.5190    -1.2260    -0.2640 cc         1 JN7      -0.317300
      6 C6          -1.2930     0.1030    -0.5290 cd         1 JN7      -0.005300
      7 S7          -0.0970    -2.0120     0.3850 ss         1 JN7       0.326000
      8 C8           0.7990    -0.4890     0.3410 cc         1 JN7       0.000600
      9 C9           0.0300     0.5540    -0.1620 cd         1 JN7      -0.250600
     10 C10         -5.2830    -1.2590    -0.5480 c          1 JN7       0.656100
     11 O11         -6.1960    -0.5290    -0.9130 o          1 JN7      -0.531000
     12 O12         -5.4590    -2.4100     0.1820 os         1 JN7      -0.369200
     13 C13         -6.7020    -2.8320     0.5790 c2         1 JN7      -0.012900
     14 C14         -6.8460    -3.9580     1.2870 c2         1 JN7      -0.366000
     15 C15          0.5670     1.9600    -0.2590 c          1 JN7       0.648700
     16 N16          2.1160    -0.3140     0.7640 ns         1 JN7      -0.385100
     17 C17          3.0050    -1.2400     1.2740 c          1 JN7       0.598100
     18 C18          4.3900    -0.6740     1.6190 c3         1 JN7      -0.075100
     19 C19          5.4240    -0.9140     0.5430 cc         1 JN7      -0.217300
     20 S20          6.1620    -2.5020     0.3160 ss         1 JN7       0.231000
     21 C21          7.1260    -1.8970    -1.0280 cc         1 JN7      -0.237000
     22 C22          6.8710    -0.5690    -1.2580 cd         1 JN7      -0.133000
     23 C23          5.9100    -0.0140    -0.3720 cd         1 JN7      -0.118000
     24 O24          2.7330    -2.4240     1.4210 o          1 JN7      -0.560100
     25 O25         -0.3340     2.8850    -0.7230 os         1 JN7      -0.432100
     26 O26          1.7150     2.2590     0.0560 o          1 JN7      -0.552000
     27 C27          0.0990     4.2720    -0.6890 c5         1 JN7       0.174300
     28 C28         -0.9840     5.1160    -1.4040 c5         1 JN7      -0.093400
     29 C29         -2.1900     5.0990    -0.4100 c5         1 JN7      -0.075900
     30 C30         -1.5670     4.8050     0.9940 c5         1 JN7      -0.075900
     31 C31         -0.0290     4.8300     0.7560 c5         1 JN7      -0.093400
     32 H1          -2.0190     1.6130    -1.9170 hc         1 JN7       0.071200
     33 H1A         -2.8300     1.6040    -0.3490 hc         1 JN7       0.071200
     34 H2          -4.3690     0.7320    -2.0060 h1         1 JN7       0.065700
     35 H2A         -3.1440    -0.3440    -2.6890 h1         1 JN7       0.065700
     36 H4          -3.0920    -2.4700     0.4610 h1         1 JN7       0.068200
     37 H4A         -2.7280    -2.7120    -1.2500 h1         1 JN7       0.068200
     38 H13         -7.5450    -2.1990     0.2820 h4         1 JN7       0.203000
     39 H14         -5.9870    -4.5690     1.5680 ha         1 JN7       0.180000
     40 H14A        -7.8280    -4.3070     1.6100 ha         1 JN7       0.180000
     41 HN16         2.4950     0.6250     0.6790 hn         1 JN7       0.368500
     42 H18          4.3090     0.4080     1.7770 hc         1 JN7       0.078200
     43 H18A         4.7320    -1.1480     2.5470 hc         1 JN7       0.078200
     44 H21          7.8030    -2.5660    -1.5430 h4         1 JN7       0.151000
     45 H22          7.3570     0.0030    -2.0440 ha         1 JN7       0.135000
     46 H23          5.5910     1.0230    -0.4180 ha         1 JN7       0.132000
     47 H27          1.0960     4.3890    -1.1380 h1         1 JN7       0.072700
     48 H28         -0.6280     6.1400    -1.5680 hc         1 JN7       0.056200
     49 H28A        -1.2480     4.7100    -2.3870 hc         1 JN7       0.056200
     50 H29         -2.7320     6.0510    -0.4260 hc         1 JN7       0.046200
     51 H29A        -2.9130     4.3210    -0.6810 hc         1 JN7       0.046200
     52 H30         -1.8750     5.5410     1.7460 hc         1 JN7       0.046200
     53 H30A        -1.8900     3.8240     1.3620 hc         1 JN7       0.046200
     54 H31          0.5170     4.2380     1.4980 hc         1 JN7       0.056200
     55 H31A         0.3640     5.8520     0.8140 hc         1 JN7       0.056200
@<TRIPOS>BOND
     1     1     2 1   
     2     1     6 1   
     3     1    32 1   
     4     1    33 1   
     5     2     3 1   
     6     2    34 1   
     7     2    35 1   
     8     3     4 1   
     9     3    10 1   
    10     4     5 1   
    11     4    36 1   
    12     4    37 1   
    13     5     6 2   
    14     5     7 1   
    15     6     9 1   
    16     7     8 1   
    17     8     9 2   
    18     8    16 1   
    19     9    15 1   
    20    10    11 2   
    21    10    12 1   
    22    12    13 1   
    23    13    14 2   
    24    13    38 1   
    25    14    39 1   
    26    14    40 1   
    27    15    25 1   
    28    15    26 2   
    29    16    17 1   
    30    16    41 1   
    31    17    18 1   
    32    17    24 2   
    33    18    19 1   
    34    18    42 1   
    35    18    43 1   
    36    19    20 1   
    37    19    23 2   
    38    20    21 1   
    39    21    22 2   
    40    21    44 1   
    41    22    23 1   
    42    22    45 1   
    43    23    46 1   
    44    25    27 1   
    45    27    28 1   
    46    27    31 1   
    47    27    47 1   
    48    28    29 1   
    49    28    48 1   
    50    28    49 1   
    51    29    30 1   
    52    29    50 1   
    53    29    51 1   
    54    30    31 1   
    55    30    52 1   
    56    30    53 1   
    57    31    54 1   
    58    31    55 1   
@<TRIPOS>SUBSTRUCTURE
     1 JN7         1 TEMP              0 ****  ****    0 ROOT
