@<TRIPOS>MOLECULE
JN7
   55    58     1     0     0
SMALL
abcg2


@<TRIPOS>ATOM
      1 C1          -2.6310     1.2380    -1.3060 c6         1 JN7      -0.037100
      2 C2          -3.6480     0.3050    -1.9530 c6         1 JN7       0.103000
      3 N3          -3.7250    -0.9600    -1.2460 n          1 JN7      -0.392800
      4 C4          -2.5140    -1.7500    -1.3540 c6         1 JN7       0.193300
      5 C5          -1.3420    -0.8630    -1.0550 cc         1 JN7      -0.317300
      6 C6          -1.3630     0.4910    -1.0010 cd         1 JN7      -0.005300
      7 S7           0.2150    -1.5320    -0.7180 ss         1 JN7       0.326000
      8 C8           0.8710     0.0400    -0.4780 cc         1 JN7       0.000600
      9 C9          -0.0750     1.0330    -0.6480 cd         1 JN7      -0.250600
     10 C10         -4.7460    -1.2050    -0.4070 c          1 JN7       0.656100
     11 O11         -5.7030    -0.4810    -0.2400 o          1 JN7      -0.531000
     12 O12         -4.5950    -2.3860     0.2310 os         1 JN7      -0.369200
     13 C13         -5.5780    -2.8170     1.0810 c2         1 JN7      -0.012900
     14 C14         -5.3780    -3.8760     1.8470 c2         1 JN7      -0.366000
     15 C15          0.2710     2.4390    -0.4330 c          1 JN7       0.648700
     16 N16          2.1880     0.2330    -0.1530 ns         1 JN7      -0.385100
     17 C17          3.1040    -0.7580     0.0100 c          1 JN7       0.598100
     18 C18          4.4850    -0.2590     0.3770 c3         1 JN7      -0.075100
     19 C19          5.5190    -1.3280     0.3600 cc         1 JN7      -0.217300
     20 S20          5.6250    -2.4990     1.6150 ss         1 JN7       0.231000
     21 C21          6.9510    -3.2840     0.8640 cc         1 JN7      -0.237000
     22 C22          7.2950    -2.6720    -0.3020 cd         1 JN7      -0.133000
     23 C23          6.4710    -1.5500    -0.5900 cd         1 JN7      -0.118000
     24 O24          2.8130    -1.9290    -0.1240 o          1 JN7      -0.560100
     25 O25         -0.7560     3.2510    -0.5730 os         1 JN7      -0.432100
     26 O26          1.3930     2.8220    -0.1490 o          1 JN7      -0.552000
     27 C27         -0.5910     4.6640    -0.3310 c5         1 JN7       0.174300
     28 C28         -1.8260     5.3370    -0.9020 c5         1 JN7      -0.093400
     29 C29         -2.9320     5.0550     0.1270 c5         1 JN7      -0.075900
     30 C30         -2.2000     4.8100     1.4680 c5         1 JN7      -0.075900
     31 C31         -0.7020     4.9550     1.1590 c5         1 JN7      -0.093400
     32 H1          -2.4440     2.0640    -1.9910 hc         1 JN7       0.071200
     33 H1A         -3.0430     1.6790    -0.3940 hc         1 JN7       0.071200
     34 H2          -4.6280     0.7720    -1.9920 h1         1 JN7       0.065700
     35 H2A         -3.3470     0.0920    -2.9820 h1         1 JN7       0.065700
     36 H4          -2.5390    -2.5950    -0.6720 h1         1 JN7       0.068200
     37 H4A         -2.4400    -2.1610    -2.3660 h1         1 JN7       0.068200
     38 H13         -6.5040    -2.2570     1.0690 h4         1 JN7       0.203000
     39 H14         -4.4470    -4.4270     1.8550 ha         1 JN7       0.180000
     40 H14A        -6.1730    -4.2110     2.4960 ha         1 JN7       0.180000
     41 HN16         2.4520     1.2060    -0.0320 hn         1 JN7       0.368500
     42 H18          4.7750     0.5320    -0.3190 hc         1 JN7       0.078200
     43 H18A         4.4200     0.2200     1.3600 hc         1 JN7       0.078200
     44 H21          7.4040    -4.1490     1.3220 h4         1 JN7       0.151000
     45 H22          8.1050    -3.0070    -0.9330 ha         1 JN7       0.135000
     46 H23          6.5800    -0.9260    -1.4670 ha         1 JN7       0.132000
     47 H27          0.3410     5.0090    -0.7800 h1         1 JN7       0.072700
     48 H28         -1.6200     6.4080    -0.9630 hc         1 JN7       0.056200
     49 H28A        -2.0680     4.9980    -1.9100 hc         1 JN7       0.056200
     50 H29         -3.6370     5.8830     0.1880 hc         1 JN7       0.046200
     51 H29A        -3.5070     4.1750    -0.1640 hc         1 JN7       0.046200
     52 H30         -2.5140     5.5110     2.2410 hc         1 JN7       0.046200
     53 H30A        -2.4170     3.8100     1.8480 hc         1 JN7       0.046200
     54 H31         -0.0640     4.3200     1.7750 hc         1 JN7       0.056200
     55 H31A        -0.3730     5.9850     1.3180 hc         1 JN7       0.056200
@<TRIPOS>BOND
     1     1     2 1   
     2     1     6 1   
     3     1    32 1   
     4     1    33 1   
     5     2     3 1   
     6     2    34 1   
     7     2    35 1   
     8     3     4 1   
     9     3    10 1   
    10     4     5 1   
    11     4    36 1   
    12     4    37 1   
    13     5     6 2   
    14     5     7 1   
    15     6     9 1   
    16     7     8 1   
    17     8     9 2   
    18     8    16 1   
    19     9    15 1   
    20    10    11 2   
    21    10    12 1   
    22    12    13 1   
    23    13    14 2   
    24    13    38 1   
    25    14    39 1   
    26    14    40 1   
    27    15    25 1   
    28    15    26 2   
    29    16    17 1   
    30    16    41 1   
    31    17    18 1   
    32    17    24 2   
    33    18    19 1   
    34    18    42 1   
    35    18    43 1   
    36    19    20 1   
    37    19    23 2   
    38    20    21 1   
    39    21    22 2   
    40    21    44 1   
    41    22    23 1   
    42    22    45 1   
    43    23    46 1   
    44    25    27 1   
    45    27    28 1   
    46    27    31 1   
    47    27    47 1   
    48    28    29 1   
    49    28    48 1   
    50    28    49 1   
    51    29    30 1   
    52    29    50 1   
    53    29    51 1   
    54    30    31 1   
    55    30    52 1   
    56    30    53 1   
    57    31    54 1   
    58    31    55 1   
@<TRIPOS>SUBSTRUCTURE
     1 JN7         1 TEMP              0 ****  ****    0 ROOT
