@<TRIPOS>MOLECULE
JN8
   58    61     1     0     0
SMALL
No Charge or Current Charge


@<TRIPOS>ATOM
      1 C1           1.2820    -0.5950    -0.8010 cc         1 JN8      -0.000300
      2 C2          -0.1510    -0.7210    -0.6910 cc         1 JN8      -0.250600
      3 C3          -0.7980     0.3890    -1.2130 cd         1 JN8       0.000600
      4 S4           0.3330     1.6250    -1.8130 ss         1 JN8       0.314000
      5 C5           1.6890     0.5990    -1.3460 cd         1 JN8      -0.318300
      6 C6           3.1300     1.0290    -1.5280 c6         1 JN8       0.185300
      7 N7           4.0370     0.1110    -0.7880 n          1 JN8      -0.414800
      8 C8           3.6880    -1.3230    -0.9520 c6         1 JN8       0.101000
      9 C9           2.2950    -1.6380    -0.3650 c6         1 JN8      -0.042100
     10 N10         -2.1830     0.5070    -1.2350 ns         1 JN8      -0.384100
     11 C11         -2.9730     1.5490    -1.6830 c          1 JN8       0.598100
     12 C12         -4.4840     1.3210    -1.5230 c3         1 JN8      -0.075100
     13 C13         -5.0720     1.9960    -0.3050 cc         1 JN8      -0.212300
     14 C14         -5.9770     3.0270    -0.2680 cd         1 JN8      -0.109000
     15 C15         -6.3230     3.4330     1.0480 cd         1 JN8      -0.132000
     16 C16         -5.6850     2.7160     2.0280 cc         1 JN8      -0.231000
     17 S17         -4.6230     1.4990     1.3290 ss         1 JN8       0.204000
     18 O18         -2.5200     2.5850    -2.1520 o          1 JN8      -0.561100
     19 C19         -0.8960    -1.8780    -0.0840 c          1 JN8       0.647700
     20 O20         -0.1040    -2.8450     0.4850 os         1 JN8      -0.429100
     21 C24          5.1360     0.5280    -0.0110 c          1 JN8       0.648100
     22 C27         -0.7940    -4.0120     1.0030 c5         1 JN8       0.173300
     23 C28          0.2720    -4.8430     1.7800 c5         1 JN8      -0.090900
     24 N28          5.3850     1.8780     0.0220 ns         1 JN8      -0.507900
     25 C29          0.8340    -5.7900     0.6900 c5         1 JN8      -0.078900
     26 O29          5.8390    -0.2630     0.5990 o          1 JN8      -0.638100
     27 C30         -0.4880    -6.2710     0.0500 c5         1 JN8      -0.078900
     28 C31         -1.2130    -4.9200    -0.2080 c5         1 JN8      -0.090900
     29 O31         -2.1220    -1.9440    -0.0740 o          1 JN8      -0.552000
     30 C32          6.4590     4.0280     0.6290 c3         1 JN8      -0.106100
     31 C33          6.4760     2.4980     0.7710 c3         1 JN8       0.102000
     32 H6           3.3970     1.0130    -2.5940 h1         1 JN8       0.054700
     33 H6A          3.2330     2.0640    -1.1770 h1         1 JN8       0.054700
     34 H8           3.6840    -1.5580    -2.0260 h1         1 JN8       0.061700
     35 H8A          4.4400    -1.9750    -0.4850 h1         1 JN8       0.061700
     36 H9           2.3600    -1.6710     0.7300 hc         1 JN8       0.072700
     37 H9A          2.0150    -2.6430    -0.7050 hc         1 JN8       0.072700
     38 HN10        -2.7120    -0.2760    -0.8610 hn         1 JN8       0.368500
     39 H12         -4.9820     1.7080    -2.4190 hc         1 JN8       0.078200
     40 H12A        -4.6830     0.2460    -1.4390 hc         1 JN8       0.078200
     41 H14         -6.3900     3.4910    -1.1600 ha         1 JN8       0.134000
     42 H15         -7.0250     4.2350     1.2580 ha         1 JN8       0.135000
     43 H16         -5.7580     2.8090     3.1040 h4         1 JN8       0.151000
     44 H27         -1.6290    -3.7130     1.6520 h1         1 JN8       0.069700
     45 H28          1.0500    -4.2170     2.2320 hc         1 JN8       0.057200
     46 H28A        -0.1950    -5.4100     2.5940 hc         1 JN8       0.057200
     47 HN28         4.7690     2.4730    -0.5140 hn         1 JN8       0.301500
     48 H29          1.4710    -5.2600    -0.0280 hc         1 JN8       0.046200
     49 H29A         1.4210    -6.6130     1.1130 hc         1 JN8       0.046200
     50 H30         -0.3260    -6.8400    -0.8720 hc         1 JN8       0.046200
     51 H30A        -1.0590    -6.9120     0.7340 hc         1 JN8       0.046200
     52 H31         -2.3000    -5.0490    -0.2630 hc         1 JN8       0.057200
     53 H31A        -0.8970    -4.4910    -1.1670 hc         1 JN8       0.057200
     54 H32          7.2840     4.4710     1.1990 hc         1 JN8       0.040367
     55 H32A         6.5710     4.3210    -0.4220 hc         1 JN8       0.040367
     56 H32B         5.5180     4.4420     1.0090 hc         1 JN8       0.040367
     57 H33          6.3800     2.2280     1.8310 h1         1 JN8       0.050700
     58 H33A         7.4320     2.1050     0.4000 h1         1 JN8       0.050700
@<TRIPOS>BOND
     1     1     2 1   
     2     1     5 2   
     3     1     9 1   
     4     2     3 2   
     5     2    19 1   
     6     3     4 1   
     7     3    10 1   
     8     4     5 1   
     9     5     6 1   
    10     6     7 1   
    11     6    32 1   
    12     6    33 1   
    13     7     8 1   
    14     7    21 1   
    15     8     9 1   
    16     8    34 1   
    17     8    35 1   
    18     9    36 1   
    19     9    37 1   
    20    10    11 1   
    21    10    38 1   
    22    11    12 1   
    23    11    18 2   
    24    12    13 1   
    25    12    39 1   
    26    12    40 1   
    27    13    14 2   
    28    13    17 1   
    29    14    15 1   
    30    14    41 1   
    31    15    16 2   
    32    15    42 1   
    33    16    17 1   
    34    16    43 1   
    35    19    20 1   
    36    19    29 2   
    37    20    22 1   
    38    21    24 1   
    39    21    26 2   
    40    22    23 1   
    41    22    28 1   
    42    22    44 1   
    43    23    25 1   
    44    23    45 1   
    45    23    46 1   
    46    24    31 1   
    47    24    47 1   
    48    25    27 1   
    49    25    48 1   
    50    25    49 1   
    51    27    28 1   
    52    27    50 1   
    53    27    51 1   
    54    28    52 1   
    55    28    53 1   
    56    30    31 1   
    57    30    54 1   
    58    30    55 1   
    59    30    56 1   
    60    31    57 1   
    61    31    58 1   
@<TRIPOS>SUBSTRUCTURE
     1 JN8         1 TEMP              0 ****  ****    0 ROOT
