@<TRIPOS>MOLECULE
JN8
   58    61     1     0     0
SMALL
abcg2


@<TRIPOS>ATOM
      1 C1           1.2050    -0.7550    -0.8180 cc         1 JN8      -0.000300
      2 C2          -0.1750    -0.9550    -0.4540 cc         1 JN8      -0.250600
      3 C3          -0.9370     0.1740    -0.6880 cd         1 JN8       0.000600
      4 S4           0.0020     1.4750    -1.3070 ss         1 JN8       0.314000
      5 C5           1.4310     0.5020    -1.2710 cd         1 JN8      -0.318300
      6 C6           2.7580     1.0590    -1.7000 c6         1 JN8       0.185300
      7 N7           3.8070     0.1310    -1.3340 n          1 JN8      -0.414800
      8 C8           3.4810    -1.2460    -1.6470 c6         1 JN8       0.101000
      9 C9           2.3220    -1.7600    -0.8010 c6         1 JN8      -0.042100
     10 N10         -2.2810     0.2980    -0.4490 ns         1 JN8      -0.384100
     11 C11         -3.0130     1.4170    -0.6900 c          1 JN8       0.598100
     12 C12         -4.4920     1.2750    -0.3960 c3         1 JN8      -0.075100
     13 C13         -5.1260     2.5690    -0.0190 cc         1 JN8      -0.212300
     14 C14         -5.9010     3.3810    -0.7900 cd         1 JN8      -0.109000
     15 C15         -6.3230     4.5580    -0.1100 cd         1 JN8      -0.132000
     16 C16         -5.8560     4.6180     1.1660 cc         1 JN8      -0.231000
     17 S17         -4.9060     3.2440     1.5510 ss         1 JN8       0.204000
     18 O18         -2.5100     2.4310    -1.1290 o          1 JN8      -0.561100
     19 C19         -0.7720    -2.1510     0.1440 c          1 JN8       0.647700
     20 O20          0.1160    -3.0690     0.4630 os         1 JN8      -0.429100
     21 C24          4.7460     0.3820    -0.3630 c          1 JN8       0.648100
     22 C27         -0.3330    -4.2990     1.0750 c5         1 JN8       0.173300
     23 C28          0.9100    -4.9700     1.6380 c5         1 JN8      -0.090900
     24 N28          5.0170     1.6920    -0.1180 ns         1 JN8      -0.507900
     25 C29          1.5050    -5.7100     0.4450 c5         1 JN8      -0.078900
     26 O29          5.3090    -0.5280     0.2340 o          1 JN8      -0.638100
     27 C30          0.2720    -6.2800    -0.2630 c5         1 JN8      -0.078900
     28 C31         -0.8700    -5.2790     0.0200 c5         1 JN8      -0.090900
     29 O31         -1.9670    -2.2780     0.3470 o          1 JN8      -0.552000
     30 C32          5.7650     3.4910     1.3470 c3         1 JN8      -0.106100
     31 C33          6.0340     2.0860     0.8370 c3         1 JN8       0.102000
     32 H6           2.7710     1.2440    -2.7790 h1         1 JN8       0.054700
     33 H6A          2.9170     2.0240    -1.2220 h1         1 JN8       0.054700
     34 H8           3.2080    -1.2900    -2.7050 h1         1 JN8       0.061700
     35 H8A          4.3580    -1.8740    -1.5170 h1         1 JN8       0.061700
     36 H9           2.6580    -1.9540     0.2200 hc         1 JN8       0.072700
     37 H9A          1.9880    -2.7170    -1.2040 hc         1 JN8       0.072700
     38 HN10        -2.7220    -0.5420    -0.0860 hn         1 JN8       0.368500
     39 H12         -4.9710     0.9030    -1.3080 hc         1 JN8       0.078200
     40 H12A        -4.6590     0.5100     0.3650 hc         1 JN8       0.078200
     41 H14         -6.1630     3.1450    -1.8120 ha         1 JN8       0.134000
     42 H15         -6.9480     5.3200    -0.5530 ha         1 JN8       0.135000
     43 H16         -6.0270     5.3870     1.9040 h4         1 JN8       0.151000
     44 H27         -1.0700    -4.0610     1.8430 h1         1 JN8       0.069700
     45 H28          1.5870    -4.2620     2.1190 hc         1 JN8       0.057200
     46 H28A         0.5940    -5.6860     2.4010 hc         1 JN8       0.057200
     47 HN28         4.8480     2.3580    -0.8560 hn         1 JN8       0.301500
     48 H29          2.0400    -5.0130    -0.2060 hc         1 JN8       0.046200
     49 H29A         2.2150    -6.4830     0.7400 hc         1 JN8       0.046200
     50 H30          0.4360    -6.4270    -1.3310 hc         1 JN8       0.046200
     51 H30A         0.0250    -7.2570     0.1570 hc         1 JN8       0.046200
     52 H31         -1.7540    -5.7860     0.4080 hc         1 JN8       0.057200
     53 H31A        -1.1870    -4.7570    -0.8830 hc         1 JN8       0.057200
     54 H32          6.5280     3.7810     2.0700 hc         1 JN8       0.040367
     55 H32A         5.7820     4.2210     0.5370 hc         1 JN8       0.040367
     56 H32B         4.7930     3.5490     1.8380 hc         1 JN8       0.040367
     57 H33          6.0210     1.3810     1.6660 h1         1 JN8       0.050700
     58 H33A         7.0330     2.0360     0.3920 h1         1 JN8       0.050700
@<TRIPOS>BOND
     1     1     2 1   
     2     1     5 2   
     3     1     9 1   
     4     2     3 2   
     5     2    19 1   
     6     3     4 1   
     7     3    10 1   
     8     4     5 1   
     9     5     6 1   
    10     6     7 1   
    11     6    32 1   
    12     6    33 1   
    13     7     8 1   
    14     7    21 1   
    15     8     9 1   
    16     8    34 1   
    17     8    35 1   
    18     9    36 1   
    19     9    37 1   
    20    10    11 1   
    21    10    38 1   
    22    11    12 1   
    23    11    18 2   
    24    12    13 1   
    25    12    39 1   
    26    12    40 1   
    27    13    14 2   
    28    13    17 1   
    29    14    15 1   
    30    14    41 1   
    31    15    16 2   
    32    15    42 1   
    33    16    17 1   
    34    16    43 1   
    35    19    20 1   
    36    19    29 2   
    37    20    22 1   
    38    21    24 1   
    39    21    26 2   
    40    22    23 1   
    41    22    28 1   
    42    22    44 1   
    43    23    25 1   
    44    23    45 1   
    45    23    46 1   
    46    24    31 1   
    47    24    47 1   
    48    25    27 1   
    49    25    48 1   
    50    25    49 1   
    51    27    28 1   
    52    27    50 1   
    53    27    51 1   
    54    28    52 1   
    55    28    53 1   
    56    30    31 1   
    57    30    54 1   
    58    30    55 1   
    59    30    56 1   
    60    31    57 1   
    61    31    58 1   
@<TRIPOS>SUBSTRUCTURE
     1 JN8         1 TEMP              0 ****  ****    0 ROOT
