@<TRIPOS>MOLECULE
JN9
  117   121     1     0     0
SMALL
abcg2


@<TRIPOS>ATOM
      1 N1           5.0840    -9.7480     2.3480 n2         1 JN9      -0.914100
      2 C7          -1.0600   -14.4860     3.5440 c          1 JN9       0.576100
      3 C8          -2.0560   -13.6930     2.6890 c3         1 JN9       0.034700
      4 N2           5.9310    -8.7640     4.2630 nv         1 JN9      -1.033200
      5 C9          -2.8860   -14.6180     1.7970 c3         1 JN9      -0.078400
      6 C1           3.7220   -11.7000     4.0820 c3         1 JN9       0.160500
      7 C5           1.0300   -13.6760     6.1310 c3         1 JN9      -0.097400
      8 C6          -0.0710   -14.6860     5.8020 c3         1 JN9       0.100000
      9 N3          -1.0420   -14.1670     4.8480 ns         1 JN9      -0.499900
     10 C4           1.8830   -13.2900     4.9260 c3         1 JN9      -0.074400
     11 C3           2.9460   -12.2560     5.2860 c3         1 JN9      -0.075400
     12 C2           5.1460    -9.7120     3.6380 c2         1 JN9       0.799100
     13 N4          -6.9090   -11.6150     1.3690 n8         1 JN9      -0.998200
     14 N            4.4790   -10.5380     4.5030 nu         1 JN9      -0.995400
     15 C            4.5990   -12.7780     3.4270 c          1 JN9       0.572100
     16 O            4.1130   -13.6210     2.6760 o          1 JN9      -0.591100
     17 C10         -3.8590   -13.8830     0.8760 c3         1 JN9      -0.070400
     18 C11         -4.9350   -13.0770     1.6030 c3         1 JN9      -0.086400
     19 C12         -5.9060   -12.4060     0.6410 c3         1 JN9       0.152800
     20 C13         -1.3700   -11.4070     2.0420 c          1 JN9       0.591100
     21 C14         -0.3760   -10.5890     1.2180 c3         1 JN9       0.013700
     22 C15         -1.0360    -9.3690     0.5410 c3         1 JN9      -0.003200
     23 C16         -0.0120    -8.5230    -0.1430 cc         1 JN9      -0.148400
     24 C17          0.1880    -8.4130    -1.4960 cd         1 JN9      -0.164100
     25 C18          1.8590    -7.2480    -0.5550 ca         1 JN9      -0.038200
     26 C19          1.0490    -7.7800     0.4850 ca         1 JN9      -0.089800
     27 C20          1.4070    -7.5300     1.8170 ca         1 JN9      -0.057000
     28 C21          2.5430    -6.7820     2.0800 ca         1 JN9      -0.128000
     29 C22          3.3350    -6.2720     1.0340 ca         1 JN9      -0.077000
     30 C23          3.0030    -6.4960    -0.2940 ca         1 JN9      -0.128000
     31 C24          1.7240   -11.4250     0.2860 c          1 JN9       0.609100
     32 C25          2.3910   -12.0720    -0.9220 c3         1 JN9      -0.104100
     33 C26          3.7000   -11.3980    -1.2320 ca         1 JN9      -0.076300
     34 C27          4.8670   -11.8000    -0.5890 ca         1 JN9      -0.069000
     35 C28          6.0640   -11.1130    -0.7700 ca         1 JN9      -0.096300
     36 C29          7.3200   -11.5430    -0.0440 c3         1 JN9       0.146300
     37 C30          7.3030   -13.2670     1.7110 c          1 JN9       0.581100
     38 C31          6.8810   -13.6380     3.1410 c3         1 JN9       0.033700
     39 C32          8.1230   -13.7400     4.0310 c3         1 JN9      -0.080400
     40 C33          7.8540   -14.2260     5.4580 c6         1 JN9      -0.057700
     41 C34          7.1740   -15.5990     5.4990 c6         1 JN9      -0.073900
     42 C35          6.9620   -16.0870     6.9340 c6         1 JN9      -0.072900
     43 C36          8.2720   -16.1070     7.7230 c6         1 JN9      -0.075400
     44 C37          8.9520   -14.7370     7.6920 c6         1 JN9      -0.072900
     45 C38          9.1630   -14.2550     6.2560 c6         1 JN9      -0.073900
     46 C39          6.0900   -10.0140    -1.6270 ca         1 JN9      -0.090000
     47 C40          4.9350    -9.6160    -2.2920 ca         1 JN9      -0.111000
     48 C41          3.7420   -10.3010    -2.0930 ca         1 JN9      -0.098000
     49 N5          -1.2830   -12.7410     1.9070 ns         1 JN9      -0.495900
     50 N6           1.3010    -7.6410    -1.7480 na         1 JN9      -0.235700
     51 N7           0.3710   -11.3700     0.2540 ns         1 JN9      -0.505900
     52 N8           7.0480   -12.0140     1.3030 ns         1 JN9      -0.495900
     53 N9           5.9120   -12.7350     3.7210 ns         1 JN9      -0.509900
     54 O2           2.3750   -11.0090     1.2380 o          1 JN9      -0.602100
     55 H1           4.3600   -10.3760     2.0070 hn         1 JN9       0.425400
     56 H2          -2.7070   -13.1050     3.3320 h1         1 JN9       0.085700
     57 H3           6.3610    -9.0310     5.1370 hn         1 JN9       0.461000
     58 H4           6.5560    -8.2810     3.6360 hn         1 JN9       0.461000
     59 H5          -3.4340   -15.3060     2.4480 hc         1 JN9       0.058200
     60 H6          -2.2000   -15.2240     1.2000 hc         1 JN9       0.058200
     61 H7           3.0030   -11.4170     3.3130 h1         1 JN9       0.116700
     62 H8           1.6620   -14.1130     6.9110 hc         1 JN9       0.041700
     63 H9           0.5730   -12.7790     6.5630 hc         1 JN9       0.041700
     64 H10         -0.6030   -14.9660     6.7120 h1         1 JN9       0.061200
     65 H11          0.3570   -15.5890     5.3700 h1         1 JN9       0.061200
     66 H12         -1.6600   -13.4350     5.1650 hn         1 JN9       0.317500
     67 H13          1.2420   -12.8770     4.1420 hc         1 JN9       0.063700
     68 H14          2.3500   -14.1830     4.5070 hc         1 JN9       0.063700
     69 H15          3.6510   -12.6700     6.0140 hc         1 JN9       0.043700
     70 H16          2.4600   -11.4010     5.7640 hc         1 JN9       0.043700
     71 H17         -7.5350   -11.1640     0.7100 hn         1 JN9       0.391500
     72 H18         -7.4900   -12.2370     1.9230 hn         1 JN9       0.391500
     73 H20          4.5790   -10.3730     5.4920 hn         1 JN9       0.482000
     74 H21         -4.3400   -14.6230     0.2300 hc         1 JN9       0.038700
     75 H22         -3.2970   -13.2170     0.2140 hc         1 JN9       0.038700
     76 H23         -4.4750   -12.3060     2.2260 hc         1 JN9       0.052700
     77 H24         -5.4930   -13.7390     2.2760 hc         1 JN9       0.052700
     78 H25         -6.3570   -13.1720    -0.0060 h1         1 JN9       0.024700
     79 H26         -5.3530   -11.7260    -0.0130 h1         1 JN9       0.024700
     80 H27          0.3570   -10.2300     1.9420 h1         1 JN9       0.111700
     81 H28         -1.5720    -8.8120     1.3110 hc         1 JN9       0.063200
     82 H29         -1.7770    -9.7190    -0.1820 hc         1 JN9       0.063200
     83 H30         -0.3780    -8.8400    -2.3080 h4         1 JN9       0.205000
     84 H31          0.8110    -7.9240     2.6310 ha         1 JN9       0.113000
     85 H32          2.8350    -6.5920     3.1050 ha         1 JN9       0.113000
     86 H33          4.2220    -5.6980     1.2710 ha         1 JN9       0.109000
     87 H34          3.6140    -6.1080    -1.1000 ha         1 JN9       0.110000
     88 H35          1.7200   -12.0420    -1.7810 hc         1 JN9       0.068200
     89 H36          2.5520   -13.1220    -0.6650 hc         1 JN9       0.068200
     90 H37          4.8280   -12.6380     0.0950 ha         1 JN9       0.131000
     91 H38          7.8110   -12.3580    -0.5750 h1         1 JN9       0.064200
     92 H39          8.0220   -10.7070    -0.0060 h1         1 JN9       0.064200
     93 H40          6.4140   -14.6170     3.0440 h1         1 JN9       0.103700
     94 H41          8.8230   -14.4190     3.5420 hc         1 JN9       0.057200
     95 H42          8.6060   -12.7570     4.0710 hc         1 JN9       0.057200
     96 H43          7.1850   -13.5100     5.9520 hc         1 JN9       0.036700
     97 H44          6.2120   -15.5640     4.9820 hc         1 JN9       0.043200
     98 H45          7.7990   -16.3190     4.9570 hc         1 JN9       0.043200
     99 H46          6.2510   -15.4200     7.4360 hc         1 JN9       0.037950
    100 H47          6.5080   -17.0820     6.9260 hc         1 JN9       0.037950
    101 H48          8.0880   -16.4160     8.7550 hc         1 JN9       0.040200
    102 H49          8.9450   -16.8520     7.2840 hc         1 JN9       0.040200
    103 H50          9.9090   -14.7750     8.2180 hc         1 JN9       0.037950
    104 H51          8.3250   -14.0130     8.2260 hc         1 JN9       0.037950
    105 H52          9.8690   -14.9240     5.7500 hc         1 JN9       0.043200
    106 H53          9.6150   -13.2580     6.2530 hc         1 JN9       0.043200
    107 H54          7.0130    -9.4630    -1.7640 ha         1 JN9       0.109000
    108 H55          4.9600    -8.7580    -2.9520 ha         1 JN9       0.106000
    109 H56          2.8360    -9.9700    -2.5860 ha         1 JN9       0.101000
    110 H57         -0.5910   -13.1050     1.2680 hn         1 JN9       0.337500
    111 H58          1.6600    -7.4210    -2.6620 hn         1 JN9       0.348000
    112 H59         -0.0860   -11.5940    -0.6190 hn         1 JN9       0.307500
    113 H60          6.5250   -11.3850     1.9040 hn         1 JN9       0.336500
    114 H61          6.2340   -12.0120     4.3460 hn         1 JN9       0.316500
    115 O4          -0.3150   -15.3220     3.0310 o          1 JN9      -0.603100
    116 O1           7.8720   -14.1140     1.0200 o          1 JN9      -0.616100
    117 O3          -2.1560   -10.8420     2.8020 o          1 JN9      -0.614100
@<TRIPOS>BOND
     1     1    12 2   
     2     1    55 1   
     3     2     3 1   
     4     2     9 1   
     5     2   115 2   
     6     3     5 1   
     7     3    49 1   
     8     3    56 1   
     9     4    12 1   
    10     4    57 1   
    11     4    58 1   
    12     5    17 1   
    13     5    59 1   
    14     5    60 1   
    15     6    11 1   
    16     6    14 1   
    17     6    15 1   
    18     6    61 1   
    19     7     8 1   
    20     7    10 1   
    21     7    62 1   
    22     7    63 1   
    23     8     9 1   
    24     8    64 1   
    25     8    65 1   
    26     9    66 1   
    27    10    11 1   
    28    10    67 1   
    29    10    68 1   
    30    11    69 1   
    31    11    70 1   
    32    12    14 1   
    33    13    19 1   
    34    13    71 1   
    35    13    72 1   
    36    14    73 1   
    37    15    16 2   
    38    15    53 1   
    39    17    18 1   
    40    17    74 1   
    41    17    75 1   
    42    18    19 1   
    43    18    76 1   
    44    18    77 1   
    45    19    78 1   
    46    19    79 1   
    47    20    21 1   
    48    20    49 1   
    49    20   117 2   
    50    21    22 1   
    51    21    51 1   
    52    21    80 1   
    53    22    23 1   
    54    22    81 1   
    55    22    82 1   
    56    23    24 2   
    57    23    26 1   
    58    24    50 1   
    59    24    83 1   
    60    25    26 ar  
    61    25    30 ar  
    62    25    50 1   
    63    26    27 ar  
    64    27    28 ar  
    65    27    84 1   
    66    28    29 ar  
    67    28    85 1   
    68    29    30 ar  
    69    29    86 1   
    70    30    87 1   
    71    31    32 1   
    72    31    51 1   
    73    31    54 2   
    74    32    33 1   
    75    32    88 1   
    76    32    89 1   
    77    33    34 ar  
    78    33    48 ar  
    79    34    35 ar  
    80    34    90 1   
    81    35    36 1   
    82    35    46 ar  
    83    36    52 1   
    84    36    91 1   
    85    36    92 1   
    86    37    38 1   
    87    37    52 1   
    88    37   116 2   
    89    38    39 1   
    90    38    53 1   
    91    38    93 1   
    92    39    40 1   
    93    39    94 1   
    94    39    95 1   
    95    40    41 1   
    96    40    45 1   
    97    40    96 1   
    98    41    42 1   
    99    41    97 1   
   100    41    98 1   
   101    42    43 1   
   102    42    99 1   
   103    42   100 1   
   104    43    44 1   
   105    43   101 1   
   106    43   102 1   
   107    44    45 1   
   108    44   103 1   
   109    44   104 1   
   110    45   105 1   
   111    45   106 1   
   112    46    47 ar  
   113    46   107 1   
   114    47    48 ar  
   115    47   108 1   
   116    48   109 1   
   117    49   110 1   
   118    50   111 1   
   119    51   112 1   
   120    52   113 1   
   121    53   114 1   
@<TRIPOS>SUBSTRUCTURE
     1 JN9         1 TEMP              0 ****  ****    0 ROOT
