@<TRIPOS>MOLECULE
JN9
  117   121     1     0     0
SMALL
No Charge or Current Charge


@<TRIPOS>ATOM
      1 N1           5.4600    -9.7980     3.5940 n2         1 JN9      -0.914100
      2 C7          -0.8240   -14.2790     2.9300 c          1 JN9       0.576100
      3 C8          -1.9070   -13.2890     2.4200 c3         1 JN9       0.034700
      4 N2           6.0370    -9.5870     5.7220 nv         1 JN9      -1.033200
      5 C9          -3.0950   -14.0540     1.7770 c3         1 JN9      -0.078400
      6 C1           3.9820   -12.0860     4.4960 c3         1 JN9       0.160500
      7 C5           1.1110   -14.5710     5.7000 c3         1 JN9      -0.097400
      8 C6           0.0450   -15.4440     4.9950 c3         1 JN9       0.100000
      9 N3          -0.9400   -14.6440     4.2570 ns         1 JN9      -0.499900
     10 C4           2.0320   -13.7860     4.7340 c3         1 JN9      -0.074400
     11 C3           3.0980   -12.9270     5.4550 c3         1 JN9      -0.075400
     12 C2           5.2040    -9.9060     4.7960 c2         1 JN9       0.799100
     13 N4          -7.0560   -11.2210     3.2760 n8         1 JN9      -0.998200
     14 N            4.6600   -11.0010     5.2930 nu         1 JN9      -0.995400
     15 C            4.9820   -12.9850     3.6780 c          1 JN9       0.572100
     16 O            4.6450   -13.7230     2.7620 o          1 JN9      -0.591100
     17 C10         -4.3110   -13.1830     1.3700 c3         1 JN9      -0.070400
     18 C11         -5.0870   -12.5770     2.5640 c3         1 JN9      -0.086400
     19 C12         -6.3160   -11.7590     2.1200 c3         1 JN9       0.152800
     20 C13         -1.4510   -10.9930     1.4230 c          1 JN9       0.591100
     21 C14         -0.5240   -10.2130     0.4500 c3         1 JN9       0.013700
     22 C15         -1.3300    -9.5030    -0.6630 c3         1 JN9      -0.003200
     23 C16         -0.4550    -8.8600    -1.7130 cc         1 JN9      -0.148400
     24 C17         -0.3510    -9.2240    -3.0520 cd         1 JN9      -0.164100
     25 C18          1.1100    -7.5670    -2.7180 ca         1 JN9      -0.038200
     26 C19          0.4860    -7.7900    -1.5220 ca         1 JN9      -0.089800
     27 C20          0.8030    -7.0460    -0.3750 ca         1 JN9      -0.057000
     28 C21          1.8020    -6.0560    -0.4840 ca         1 JN9      -0.128000
     29 C22          2.4530    -5.8300    -1.7190 ca         1 JN9      -0.077000
     30 C23          2.1060    -6.5900    -2.8560 ca         1 JN9      -0.128000
     31 C24          1.7120   -11.3860     0.5270 c          1 JN9       0.609100
     32 C25          2.8060   -12.0110    -0.3410 c3         1 JN9      -0.104100
     33 C26          3.9880   -11.0550    -0.4730 ca         1 JN9      -0.076300
     34 C27          5.2400   -11.3960     0.0720 ca         1 JN9      -0.069000
     35 C28          6.3200   -10.4900     0.0220 ca         1 JN9      -0.096300
     36 C29          7.6650   -10.8470     0.6520 c3         1 JN9       0.146300
     37 C30          7.9710   -12.8620     2.1440 c          1 JN9       0.581100
     38 C31          7.4410   -13.5690     3.4290 c3         1 JN9       0.033700
     39 C32          8.5680   -13.8030     4.4680 c3         1 JN9      -0.080400
     40 C33          8.1340   -14.4570     5.8200 c6         1 JN9      -0.057700
     41 C34          7.4480   -15.8410     5.6220 c6         1 JN9      -0.073900
     42 C35          7.0420   -16.4740     6.9770 c6         1 JN9      -0.072900
     43 C36          8.2560   -16.5950     7.9280 c6         1 JN9      -0.075400
     44 C37          8.9380   -15.2220     8.1350 c6         1 JN9      -0.072900
     45 C38          9.3480   -14.5910     6.7820 c6         1 JN9      -0.073900
     46 C39          6.1430    -9.2440    -0.6110 ca         1 JN9      -0.090000
     47 C40          4.9010    -8.9070    -1.1770 ca         1 JN9      -0.111000
     48 C41          3.8250    -9.8080    -1.1040 ca         1 JN9      -0.098000
     49 N5          -1.2790   -12.3610     1.4550 ns         1 JN9      -0.495900
     50 N6           0.6240    -8.4200    -3.6910 na         1 JN9      -0.235700
     51 N7           0.5480   -11.0600    -0.1340 ns         1 JN9      -0.505900
     52 N8           7.4940   -11.5890     1.9030 ns         1 JN9      -0.495900
     53 N9           6.3050   -12.8390     4.0330 ns         1 JN9      -0.509900
     54 O2           1.8480   -11.1880     1.7260 o          1 JN9      -0.602100
     55 H1           4.7540   -10.3590     3.1150 hn         1 JN9       0.425400
     56 H2          -2.2600   -12.7220     3.2900 h1         1 JN9       0.085700
     57 H3           6.2270   -10.4060     6.2720 hn         1 JN9       0.461000
     58 H4           6.8590    -9.1770     5.3070 hn         1 JN9       0.461000
     59 H5          -3.4390   -14.8290     2.4730 hc         1 JN9       0.058200
     60 H6          -2.7300   -14.5830     0.8880 hc         1 JN9       0.058200
     61 H7           3.3130   -11.6270     3.7550 h1         1 JN9       0.116700
     62 H8           1.7320   -15.2240     6.3260 hc         1 JN9       0.041700
     63 H9           0.6090   -13.8700     6.3770 hc         1 JN9       0.041700
     64 H10         -0.4910   -16.0330     5.7520 h1         1 JN9       0.061200
     65 H11          0.5350   -16.1510     4.3130 h1         1 JN9       0.061200
     66 H12         -1.7260   -14.2620     4.7700 hn         1 JN9       0.317500
     67 H13          1.4220   -13.1230     4.1090 hc         1 JN9       0.063700
     68 H14          2.5200   -14.5010     4.0610 hc         1 JN9       0.063700
     69 H15          3.7390   -13.5690     6.0720 hc         1 JN9       0.043700
     70 H16          2.5730   -12.2500     6.1410 hc         1 JN9       0.043700
     71 H17         -7.8960   -10.7360     2.9380 hn         1 JN9       0.391500
     72 H18         -7.4340   -12.0030     3.8230 hn         1 JN9       0.391500
     73 H20          4.2570   -10.8170     6.2070 hn         1 JN9       0.482000
     74 H21         -5.0000   -13.8080     0.7890 hc         1 JN9       0.038700
     75 H22         -3.9830   -12.3810     0.6980 hc         1 JN9       0.038700
     76 H23         -4.4220   -11.9290     3.1460 hc         1 JN9       0.052700
     77 H24         -5.4120   -13.3880     3.2280 hc         1 JN9       0.052700
     78 H25         -6.9950   -12.3960     1.5350 h1         1 JN9       0.024700
     79 H26         -5.9940   -10.9210     1.4870 h1         1 JN9       0.024700
     80 H27         -0.0390    -9.4450     1.0630 h1         1 JN9       0.111700
     81 H28         -1.9820    -8.7460    -0.2100 hc         1 JN9       0.063200
     82 H29         -1.9930   -10.2340    -1.1420 hc         1 JN9       0.063200
     83 H30         -0.8880   -10.0000    -3.5910 h4         1 JN9       0.205000
     84 H31          0.2960    -7.2220     0.5700 ha         1 JN9       0.113000
     85 H32          2.0730    -5.4640     0.3870 ha         1 JN9       0.113000
     86 H33          3.2230    -5.0650    -1.7940 ha         1 JN9       0.109000
     87 H34          2.5990    -6.4230    -3.8100 ha         1 JN9       0.110000
     88 H35          2.4100   -12.2470    -1.3350 hc         1 JN9       0.068200
     89 H36          3.1260   -12.9430     0.1390 hc         1 JN9       0.068200
     90 H37          5.3670   -12.3640     0.5480 ha         1 JN9       0.131000
     91 H38          8.2500   -11.4370    -0.0660 h1         1 JN9       0.064200
     92 H39          8.2280    -9.9300     0.8690 h1         1 JN9       0.064200
     93 H40          7.0770   -14.5470     3.0910 h1         1 JN9       0.103700
     94 H41          9.3440   -14.4190     3.9980 hc         1 JN9       0.057200
     95 H42          9.0400   -12.8340     4.6760 hc         1 JN9       0.057200
     96 H43          7.4100   -13.7750     6.2870 hc         1 JN9       0.036700
     97 H44          6.5500   -15.7380     4.9990 hc         1 JN9       0.043200
     98 H45          8.1250   -16.5210     5.0860 hc         1 JN9       0.043200
     99 H46          6.2600   -15.8630     7.4500 hc         1 JN9       0.037950
    100 H47          6.6010   -17.4660     6.8070 hc         1 JN9       0.037950
    101 H48          7.9320   -17.0010     8.8970 hc         1 JN9       0.040200
    102 H49          8.9810   -17.3100     7.5160 hc         1 JN9       0.040200
    103 H50          9.8230   -15.3380     8.7760 hc         1 JN9       0.037950
    104 H51          8.2550   -14.5450     8.6680 hc         1 JN9       0.037950
    105 H52         10.1300   -15.2050     6.3130 hc         1 JN9       0.043200
    106 H53          9.7950   -13.6030     6.9610 hc         1 JN9       0.043200
    107 H54          6.9650    -8.5340    -0.6630 ha         1 JN9       0.109000
    108 H55          4.7680    -7.9430    -1.6620 ha         1 JN9       0.106000
    109 H56          2.8640    -9.5310    -1.5310 ha         1 JN9       0.101000
    110 H57         -0.5590   -12.7270     0.8430 hn         1 JN9       0.337500
    111 H58          0.9120    -8.4620    -4.6640 hn         1 JN9       0.348000
    112 H59          0.5330   -11.2230    -1.1350 hn         1 JN9       0.307500
    113 H60          6.8790   -11.1930     2.6090 hn         1 JN9       0.336500
    114 H61          6.4710   -12.1760     4.7820 hn         1 JN9       0.316500
    115 O4           0.0830   -14.6930     2.2180 o          1 JN9      -0.603100
    116 O1           8.7310   -13.4210     1.3630 o          1 JN9      -0.616100
    117 O3          -2.2570   -10.4270     2.1500 o          1 JN9      -0.614100
@<TRIPOS>BOND
     1     1    12 2   
     2     1    55 1   
     3     2     3 1   
     4     2     9 1   
     5     2   115 2   
     6     3     5 1   
     7     3    49 1   
     8     3    56 1   
     9     4    12 1   
    10     4    57 1   
    11     4    58 1   
    12     5    17 1   
    13     5    59 1   
    14     5    60 1   
    15     6    11 1   
    16     6    14 1   
    17     6    15 1   
    18     6    61 1   
    19     7     8 1   
    20     7    10 1   
    21     7    62 1   
    22     7    63 1   
    23     8     9 1   
    24     8    64 1   
    25     8    65 1   
    26     9    66 1   
    27    10    11 1   
    28    10    67 1   
    29    10    68 1   
    30    11    69 1   
    31    11    70 1   
    32    12    14 1   
    33    13    19 1   
    34    13    71 1   
    35    13    72 1   
    36    14    73 1   
    37    15    16 2   
    38    15    53 1   
    39    17    18 1   
    40    17    74 1   
    41    17    75 1   
    42    18    19 1   
    43    18    76 1   
    44    18    77 1   
    45    19    78 1   
    46    19    79 1   
    47    20    21 1   
    48    20    49 1   
    49    20   117 2   
    50    21    22 1   
    51    21    51 1   
    52    21    80 1   
    53    22    23 1   
    54    22    81 1   
    55    22    82 1   
    56    23    24 2   
    57    23    26 1   
    58    24    50 1   
    59    24    83 1   
    60    25    26 ar  
    61    25    30 ar  
    62    25    50 1   
    63    26    27 ar  
    64    27    28 ar  
    65    27    84 1   
    66    28    29 ar  
    67    28    85 1   
    68    29    30 ar  
    69    29    86 1   
    70    30    87 1   
    71    31    32 1   
    72    31    51 1   
    73    31    54 2   
    74    32    33 1   
    75    32    88 1   
    76    32    89 1   
    77    33    34 ar  
    78    33    48 ar  
    79    34    35 ar  
    80    34    90 1   
    81    35    36 1   
    82    35    46 ar  
    83    36    52 1   
    84    36    91 1   
    85    36    92 1   
    86    37    38 1   
    87    37    52 1   
    88    37   116 2   
    89    38    39 1   
    90    38    53 1   
    91    38    93 1   
    92    39    40 1   
    93    39    94 1   
    94    39    95 1   
    95    40    41 1   
    96    40    45 1   
    97    40    96 1   
    98    41    42 1   
    99    41    97 1   
   100    41    98 1   
   101    42    43 1   
   102    42    99 1   
   103    42   100 1   
   104    43    44 1   
   105    43   101 1   
   106    43   102 1   
   107    44    45 1   
   108    44   103 1   
   109    44   104 1   
   110    45   105 1   
   111    45   106 1   
   112    46    47 ar  
   113    46   107 1   
   114    47    48 ar  
   115    47   108 1   
   116    48   109 1   
   117    49   110 1   
   118    50   111 1   
   119    51   112 1   
   120    52   113 1   
   121    53   114 1   
@<TRIPOS>SUBSTRUCTURE
     1 JN9         1 TEMP              0 ****  ****    0 ROOT
