@<TRIPOS>MOLECULE
JNA
   27    28     1     0     0
SMALL
abcg2


@<TRIPOS>ATOM
      1 C13          3.8530    -1.2230    -1.1280 ca         1 JNA      -0.129500
      2 C15          3.5090    -1.5430     1.2340 ca         1 JNA      -0.129500
      3 O01          1.4250     2.3820    -1.0140 o          1 JNA      -0.530500
      4 S02          1.0910     1.4500     0.0480 sy         1 JNA       1.147600
      5 O03          0.9210     1.9240     1.4110 o          1 JNA      -0.530500
      6 N04         -0.3330     0.7440    -0.3970 n7         1 JNA      -0.864300
      7 C05         -0.9210    -0.2710     0.4730 c3         1 JNA       0.275100
      8 C06         -2.3060    -0.5780     0.0170 cc         1 JNA      -0.241300
      9 C07         -2.8530    -1.8000    -0.2330 cd         1 JNA      -0.125000
     10 C08         -4.2200    -1.7260    -0.6200 cd         1 JNA      -0.136000
     11 C09         -4.6800    -0.4470    -0.6620 cc         1 JNA      -0.246000
     12 S10         -3.4600     0.6780    -0.2300 ss         1 JNA       0.256000
     13 C11          2.3080     0.1610     0.0620 ca         1 JNA      -0.311500
     14 C12          2.9340    -0.1860    -1.1300 ca         1 JNA      -0.017500
     15 C14          4.1390    -1.9010     0.0510 ca         1 JNA      -0.055000
     16 C16          2.5870    -0.5050     1.2480 ca         1 JNA      -0.017500
     17 H131         4.3510    -1.4970    -2.0480 ha         1 JNA       0.120000
     18 H151         3.7340    -2.0680     2.1530 ha         1 JNA       0.120000
     19 H041        -0.3330     0.4870    -1.3790 hn         1 JNA       0.483000
     20 H052        -0.3430    -1.2010     0.4850 h1         1 JNA       0.063200
     21 H051        -0.9360     0.1190     1.4910 h1         1 JNA       0.063200
     22 H071        -2.2970    -2.7230    -0.1420 ha         1 JNA       0.131000
     23 H081        -4.8270    -2.5870    -0.8620 ha         1 JNA       0.135000
     24 H091        -5.6650    -0.1020    -0.9340 h4         1 JNA       0.151000
     25 H121         2.7180     0.3440    -2.0490 ha         1 JNA       0.135500
     26 H141         4.8590    -2.7080     0.0460 ha         1 JNA       0.118000
     27 H161         2.1050    -0.2230     2.1740 ha         1 JNA       0.135500
@<TRIPOS>BOND
     1     1    14 ar  
     2     1    15 ar  
     3     1    17 1   
     4     2    15 ar  
     5     2    16 ar  
     6     2    18 1   
     7     3     4 2   
     8     4     5 2   
     9     4     6 1   
    10     4    13 1   
    11     6     7 1   
    12     6    19 1   
    13     7     8 1   
    14     7    20 1   
    15     7    21 1   
    16     8     9 2   
    17     8    12 1   
    18     9    10 1   
    19     9    22 1   
    20    10    11 2   
    21    10    23 1   
    22    11    12 1   
    23    11    24 1   
    24    13    14 ar  
    25    13    16 ar  
    26    14    25 1   
    27    15    26 1   
    28    16    27 1   
@<TRIPOS>SUBSTRUCTURE
     1 JNA         1 TEMP              0 ****  ****    0 ROOT
