@<TRIPOS>MOLECULE
JNA
   27    28     1     0     0
SMALL
No Charge or Current Charge


@<TRIPOS>ATOM
      1 C13          3.7960    -1.1140    -1.6400 ca         1 JNA      -0.129500
      2 C15          3.7910    -2.0300     0.6140 ca         1 JNA      -0.129500
      3 O01          1.3750     2.3440    -0.2470 o          1 JNA      -0.530500
      4 S02          1.1970     1.1440     0.5760 sy         1 JNA       1.147600
      5 O03          1.0980     1.1820     2.0370 o          1 JNA      -0.530500
      6 N04         -0.1910     0.4130     0.0220 n7         1 JNA      -0.864300
      7 C05         -1.4510     0.7980     0.6510 c3         1 JNA       0.275100
      8 C06         -2.5440    -0.0420     0.0630 cc         1 JNA      -0.241300
      9 C07         -3.0290    -1.2440     0.5170 cd         1 JNA      -0.125000
     10 C08         -4.0800    -1.7700    -0.2820 cd         1 JNA      -0.136000
     11 C09         -4.4040    -0.9730    -1.3500 cc         1 JNA      -0.246000
     12 S10         -3.3960     0.4720    -1.3920 ss         1 JNA       0.256000
     13 C11          2.3940    -0.1030     0.0810 ca         1 JNA      -0.311500
     14 C12          2.8640    -0.1370    -1.2490 ca         1 JNA      -0.017500
     15 C14          4.2600    -2.0600    -0.7100 ca         1 JNA      -0.055000
     16 C16          2.8590    -1.0560     1.0130 ca         1 JNA      -0.017500
     17 H131         4.1570    -1.1380    -2.6650 ha         1 JNA       0.120000
     18 H151         4.1500    -2.7630     1.3330 ha         1 JNA       0.120000
     19 H041        -0.0040    -0.5670     0.2120 hn         1 JNA       0.483000
     20 H052        -1.4270     0.6360     1.7390 h1         1 JNA       0.063200
     21 H051        -1.6710     1.8610     0.4760 h1         1 JNA       0.063200
     22 H071        -2.6480    -1.7460     1.4020 ha         1 JNA       0.131000
     23 H081        -4.5780    -2.7110    -0.0670 ha         1 JNA       0.135000
     24 H091        -5.1550    -1.1220    -2.1150 h4         1 JNA       0.151000
     25 H121         2.5090     0.5880    -1.9800 ha         1 JNA       0.135500
     26 H141         4.9810    -2.8160    -1.0160 ha         1 JNA       0.118000
     27 H161         2.5060    -1.0470     2.0430 ha         1 JNA       0.135500
@<TRIPOS>BOND
     1     1    14 ar  
     2     1    15 ar  
     3     1    17 1   
     4     2    15 ar  
     5     2    16 ar  
     6     2    18 1   
     7     3     4 2   
     8     4     5 2   
     9     4     6 1   
    10     4    13 1   
    11     6     7 1   
    12     6    19 1   
    13     7     8 1   
    14     7    20 1   
    15     7    21 1   
    16     8     9 2   
    17     8    12 1   
    18     9    10 1   
    19     9    22 1   
    20    10    11 2   
    21    10    23 1   
    22    11    12 1   
    23    11    24 1   
    24    13    14 ar  
    25    13    16 ar  
    26    14    25 1   
    27    15    26 1   
    28    16    27 1   
@<TRIPOS>SUBSTRUCTURE
     1 JNA         1 TEMP              0 ****  ****    0 ROOT
