@<TRIPOS>MOLECULE
JNB
   47    49     1     0     0
SMALL
No Charge or Current Charge


@<TRIPOS>ATOM
      1 C2          -0.2530    -0.4860     1.1180 c          1 JNB       0.626700
      2 C3           1.2080    -0.3440     0.7390 ca         1 JNB      -0.151600
      3 C4           1.6590     0.6170    -0.1990 ca         1 JNB      -0.069500
      4 C5           3.0230     0.7150    -0.5240 ca         1 JNB      -0.112500
      5 C6           3.9870    -0.1340     0.0700 cp         1 JNB      -0.006000
      6 C7           3.5280    -1.0910     1.0060 ca         1 JNB      -0.112500
      7 N1          -1.1390     0.3640     0.5010 ns         1 JNB      -0.502900
      8 C8           2.1650    -1.1950     1.3340 ca         1 JNB      -0.069500
      9 C1          -2.5900     0.2740     0.6140 c6         1 JNB       0.301700
     10 C15         -3.2810     1.6340     0.2560 c6         1 JNB       0.098300
     11 C16         -4.8230     1.4280     0.2540 c6         1 JNB       0.140300
     12 C17         -5.2180     0.2770    -0.7160 c6         1 JNB       0.142300
     13 C18         -4.4270    -1.0120    -0.3300 c6         1 JNB       0.178300
     14 C19         -4.7010    -2.1960    -1.3170 c3         1 JNB       0.172600
     15 O6          -3.9450    -3.3870    -1.0120 oh         1 JNB      -0.705000
     16 O2          -0.6340    -1.3030     1.9460 o          1 JNB      -0.577100
     17 O5          -3.0000    -0.7310    -0.3320 os         1 JNB      -0.459000
     18 O4          -6.6440     0.0790    -0.6760 oh         1 JNB      -0.715000
     19 O3          -5.4840     2.6530    -0.1060 oh         1 JNB      -0.667000
     20 O1          -2.9330     2.6930     1.1800 oh         1 JNB      -0.715000
     21 C9           5.4400    -0.0240    -0.2800 cp         1 JNB      -0.044000
     22 C14          6.4480    -0.2560     0.6920 ca         1 JNB      -0.095500
     23 C13          7.8110    -0.1530     0.3640 ca         1 JNB      -0.111000
     24 C12          8.1970     0.1840    -0.9430 ca         1 JNB      -0.103000
     25 C11          7.2180     0.4170    -1.9220 ca         1 JNB      -0.111000
     26 C10          5.8550     0.3150    -1.5930 ca         1 JNB      -0.095500
     27 H1           0.9680     1.3010    -0.6850 ha         1 JNB       0.123500
     28 H2           3.3360     1.4730    -1.2370 ha         1 JNB       0.119500
     29 H3           4.2320    -1.7720     1.4750 ha         1 JNB       0.119500
     30 H4          -0.7600     0.9770    -0.2050 hn         1 JNB       0.311500
     31 H5           1.8560    -1.9480     2.0570 ha         1 JNB       0.123500
     32 H6          -2.8640    -0.0310     1.6370 h2         1 JNB       0.088700
     33 H7          -2.9700     1.9130    -0.7620 h1         1 JNB       0.049700
     34 H8          -5.1220     1.1340     1.2730 h1         1 JNB       0.058700
     35 H9          -4.9150     0.5680    -1.7330 h1         1 JNB       0.051700
     36 H10         -4.7240    -1.3350     0.6790 h1         1 JNB       0.066700
     37 H11         -5.7760    -2.4220    -1.2930 h1         1 JNB       0.034200
     38 H12         -4.4650    -1.8520    -2.3340 h1         1 JNB       0.034200
     39 H13         -4.1380    -4.0400    -1.7240 ho         1 JNB       0.502000
     40 H14         -7.0240     0.9910    -0.6320 ho         1 JNB       0.524000
     41 H15         -4.9460     3.3580     0.3260 ho         1 JNB       0.465000
     42 H16         -1.9490     2.7190     1.2460 ho         1 JNB       0.516000
     43 H17          6.1710    -0.5050     1.7130 ha         1 JNB       0.114500
     44 H18          8.5680    -0.3320     1.1250 ha         1 JNB       0.114500
     45 H19          9.2520     0.2630    -1.1970 ha         1 JNB       0.114000
     46 H20          7.5140     0.6750    -2.9360 ha         1 JNB       0.114500
     47 H21          5.1140     0.4870    -2.3700 ha         1 JNB       0.114500
@<TRIPOS>BOND
     1     1     2 1   
     2     1     7 1   
     3     1    16 2   
     4     2     3 ar  
     5     2     8 ar  
     6     3     4 ar  
     7     3    27 1   
     8     4     5 ar  
     9     4    28 1   
    10     5     6 ar  
    11     5    21 1   
    12     6     8 ar  
    13     6    29 1   
    14     7     9 1   
    15     7    30 1   
    16     8    31 1   
    17     9    10 1   
    18     9    17 1   
    19     9    32 1   
    20    10    11 1   
    21    10    20 1   
    22    10    33 1   
    23    11    12 1   
    24    11    19 1   
    25    11    34 1   
    26    12    13 1   
    27    12    18 1   
    28    12    35 1   
    29    13    14 1   
    30    13    17 1   
    31    13    36 1   
    32    14    15 1   
    33    14    37 1   
    34    14    38 1   
    35    15    39 1   
    36    18    40 1   
    37    19    41 1   
    38    20    42 1   
    39    21    22 ar  
    40    21    26 ar  
    41    22    23 ar  
    42    22    43 1   
    43    23    24 ar  
    44    23    44 1   
    45    24    25 ar  
    46    24    45 1   
    47    25    26 ar  
    48    25    46 1   
    49    26    47 1   
@<TRIPOS>SUBSTRUCTURE
     1 JNB         1 TEMP              0 ****  ****    0 ROOT
