@<TRIPOS>MOLECULE
JNB
   47    49     1     0     0
SMALL
abcg2


@<TRIPOS>ATOM
      1 C2          -0.2240    -0.5840     0.9300 c          1 JNB       0.626700
      2 C3           1.2170    -0.4110     0.5750 ca         1 JNB      -0.151600
      3 C4           1.6570     0.2500    -0.5700 ca         1 JNB      -0.069500
      4 C5           3.0090     0.3720    -0.8410 ca         1 JNB      -0.112500
      5 C6           3.9660    -0.1620     0.0220 cp         1 JNB      -0.006000
      6 C7           3.5200    -0.8340     1.1610 ca         1 JNB      -0.112500
      7 N1          -1.0980     0.2550     0.3240 ns         1 JNB      -0.502900
      8 C8           2.1690    -0.9610     1.4300 ca         1 JNB      -0.069500
      9 C1          -2.5120     0.1510     0.4740 c6         1 JNB       0.301700
     10 C15         -3.1630     1.5340     0.3850 c6         1 JNB       0.098300
     11 C16         -4.6760     1.3740     0.4560 c6         1 JNB       0.140300
     12 C17         -5.1660     0.3740    -0.5850 c6         1 JNB       0.142300
     13 C18         -4.3940    -0.9380    -0.4360 c6         1 JNB       0.178300
     14 C19         -4.7690    -1.9390    -1.5070 c3         1 JNB       0.172600
     15 O6          -4.0760    -3.1410    -1.2700 oh         1 JNB      -0.705000
     16 O2          -0.5760    -1.4200     1.7450 o          1 JNB      -0.577100
     17 O5          -3.0090    -0.6830    -0.5460 os         1 JNB      -0.459000
     18 O4          -6.5350     0.0990    -0.4210 oh         1 JNB      -0.715000
     19 O3          -5.3470     2.5880     0.2230 oh         1 JNB      -0.667000
     20 O1          -2.7750     2.3570     1.4540 oh         1 JNB      -0.715000
     21 C9           5.4070    -0.0220    -0.2650 cp         1 JNB      -0.044000
     22 C14          6.3290     0.1410     0.7720 ca         1 JNB      -0.095500
     23 C13          7.6830     0.2790     0.5010 ca         1 JNB      -0.111000
     24 C12          8.1400     0.2550    -0.8100 ca         1 JNB      -0.103000
     25 C11          7.2330     0.0910    -1.8490 ca         1 JNB      -0.111000
     26 C10          5.8800    -0.0450    -1.5780 ca         1 JNB      -0.095500
     27 H1           0.9620     0.6730    -1.2840 ha         1 JNB       0.123500
     28 H2           3.3150     0.9070    -1.7300 ha         1 JNB       0.119500
     29 H3           4.2340    -1.2820     1.8410 ha         1 JNB       0.119500
     30 H4          -0.7570     0.9070    -0.3650 hn         1 JNB       0.311500
     31 H5           1.8530    -1.4940     2.3170 ha         1 JNB       0.123500
     32 H6          -2.7280    -0.2810     1.4590 h2         1 JNB       0.088700
     33 H7          -2.9010     1.9800    -0.5870 h1         1 JNB       0.049700
     34 H8          -4.9260     0.9730     1.4510 h1         1 JNB       0.058700
     35 H9          -4.9600     0.7810    -1.5870 h1         1 JNB       0.051700
     36 H10         -4.6210    -1.3670     0.5550 h1         1 JNB       0.066700
     37 H11         -5.8540    -2.0840    -1.4800 h1         1 JNB       0.034200
     38 H12         -4.5240    -1.5150    -2.4920 h1         1 JNB       0.034200
     39 H13         -4.3910    -3.7930    -1.9020 ho         1 JNB       0.502000
     40 H14         -7.0220     0.9220    -0.5350 ho         1 JNB       0.524000
     41 H15         -5.2090     3.1680     0.9790 ho         1 JNB       0.465000
     42 H16         -1.8720     2.6570     1.3100 ho         1 JNB       0.516000
     43 H17          5.9870     0.1810     1.7980 ha         1 JNB       0.114500
     44 H18          8.3810     0.4120     1.3170 ha         1 JNB       0.114500
     45 H19          9.1970     0.3610    -1.0190 ha         1 JNB       0.114000
     46 H20          7.5800     0.0640    -2.8740 ha         1 JNB       0.114500
     47 H21          5.1890    -0.1920    -2.3990 ha         1 JNB       0.114500
@<TRIPOS>BOND
     1     1     2 1   
     2     1     7 1   
     3     1    16 2   
     4     2     3 ar  
     5     2     8 ar  
     6     3     4 ar  
     7     3    27 1   
     8     4     5 ar  
     9     4    28 1   
    10     5     6 ar  
    11     5    21 1   
    12     6     8 ar  
    13     6    29 1   
    14     7     9 1   
    15     7    30 1   
    16     8    31 1   
    17     9    10 1   
    18     9    17 1   
    19     9    32 1   
    20    10    11 1   
    21    10    20 1   
    22    10    33 1   
    23    11    12 1   
    24    11    19 1   
    25    11    34 1   
    26    12    13 1   
    27    12    18 1   
    28    12    35 1   
    29    13    14 1   
    30    13    17 1   
    31    13    36 1   
    32    14    15 1   
    33    14    37 1   
    34    14    38 1   
    35    15    39 1   
    36    18    40 1   
    37    19    41 1   
    38    20    42 1   
    39    21    22 ar  
    40    21    26 ar  
    41    22    23 ar  
    42    22    43 1   
    43    23    24 ar  
    44    23    44 1   
    45    24    25 ar  
    46    24    45 1   
    47    25    26 ar  
    48    25    46 1   
    49    26    47 1   
@<TRIPOS>SUBSTRUCTURE
     1 JNB         1 TEMP              0 ****  ****    0 ROOT
