@<TRIPOS>MOLECULE
JNC
   31    33     1     0     0
SMALL
No Charge or Current Charge


@<TRIPOS>ATOM
      1 C10        -23.2700    30.5260   -23.0050 c3         1 JNC       0.041100
      2 C13        -25.9480    32.0710   -25.2710 ca         1 JNC       0.121000
      3 C15        -25.3150    33.2470   -25.7040 ca         1 JNC      -0.099000
      4 C17        -23.3510    32.6670   -24.3850 ca         1 JNC      -0.110000
      5 C20        -22.7930    27.1740   -24.5080 ca         1 JNC      -0.203000
      6 C01        -22.9170    23.5560   -25.7780 c3         1 JNC       0.221100
      7 C03        -23.2590    25.8580   -24.6900 ca         1 JNC       0.442900
      8 C05        -25.0510    26.3510   -23.3320 ca         1 JNC       0.264000
      9 C08        -23.5420    27.9980   -23.7080 ca         1 JNC      -0.055000
     10 C09        -22.8700    29.2480   -23.6940 cc         1 JNC      -0.091300
     11 C11        -23.9840    31.4870   -23.9460 ca         1 JNC      -0.082300
     12 C12        -25.2870    31.1940   -24.3960 ca         1 JNC      -0.080000
     13 C16        -24.0150    33.5450   -25.2610 ca         1 JNC      -0.103000
     14 N04        -24.3980    25.4400   -24.0970 nb         1 JNC      -0.289000
     15 N07        -24.6820    27.6340   -23.0980 nb         1 JNC      -0.164000
     16 N18        -21.7460    29.0910   -24.5020 na         1 JNC       0.018500
     17 N19        -21.6520    27.7950   -25.0370 nc         1 JNC      -0.253400
     18 Cl06       -26.5340    25.8080   -22.5640 cl         1 JNC      -0.149000
     19 Cl14       -27.5740    31.6940   -25.8270 cl         1 JNC      -0.198000
     20 H101       -23.9220    30.2950   -22.1530 hc         1 JNC       0.070200
     21 H102       -22.3820    31.0010   -22.5710 hc         1 JNC       0.070200
     22 H151       -25.8300    33.9230   -26.3820 ha         1 JNC       0.130000
     23 H171       -22.3440    32.9070   -24.0500 ha         1 JNC       0.107000
     24 H012       -22.1690    23.0980   -26.4400 h1         1 JNC       0.048367
     25 H013       -22.9640    22.9670   -24.8520 h1         1 JNC       0.048367
     26 H011       -23.8960    23.5010   -26.2740 h1         1 JNC       0.048367
     27 H121       -25.7870    30.2850   -24.0700 ha         1 JNC       0.151000
     28 H161       -23.5210    34.4550   -25.5960 ha         1 JNC       0.117000
     29 H021       -21.7110    25.3360   -25.9050 hn         1 JNC       0.512000
     30 H181       -21.0490    29.7970   -24.7160 hn         1 JNC       0.375000
     31 N02        -22.5620    24.9570   -25.4850 nu         1 JNC      -0.907100
@<TRIPOS>BOND
     1     1    10 1   
     2     1    11 1   
     3     1    20 1   
     4     1    21 1   
     5     2     3 ar  
     6     2    12 ar  
     7     2    19 1   
     8     3    13 ar  
     9     3    22 1   
    10     4    11 ar  
    11     4    13 ar  
    12     4    23 1   
    13     5     7 ar  
    14     5     9 ar  
    15     5    17 2   
    16     6    24 1   
    17     6    25 1   
    18     6    26 1   
    19     6    31 1   
    20     7    14 ar  
    21     7    31 1   
    22     8    14 ar  
    23     8    15 ar  
    24     8    18 1   
    25     9    10 2   
    26     9    15 ar  
    27    10    16 1   
    28    11    12 ar  
    29    12    27 1   
    30    13    28 1   
    31    16    17 1   
    32    16    30 1   
    33    29    31 1   
@<TRIPOS>SUBSTRUCTURE
     1 JNC         1 TEMP              0 ****  ****    0 ROOT
