@<TRIPOS>MOLECULE
JNC
   31    33     1     0     0
SMALL
abcg2


@<TRIPOS>ATOM
      1 C10        -23.1880    30.5580   -22.9780 c3         1 JNC       0.041100
      2 C13        -26.0360    32.0310   -24.9870 ca         1 JNC       0.121000
      3 C15        -25.4170    33.0510   -25.6930 ca         1 JNC      -0.099000
      4 C17        -23.3380    32.4620   -24.6250 ca         1 JNC      -0.110000
      5 C20        -22.7070    27.2280   -24.4780 ca         1 JNC      -0.203000
      6 C01        -22.9310    23.7010   -25.7610 c3         1 JNC       0.221100
      7 C03        -23.1990    25.9190   -24.7800 ca         1 JNC       0.442900
      8 C05        -25.1200    26.5300   -23.7040 ca         1 JNC       0.264000
      9 C08        -23.5610    28.0830   -23.7620 ca         1 JNC      -0.055000
     10 C09        -22.8340    29.2570   -23.6110 cc         1 JNC      -0.091300
     11 C11        -23.9690    31.4430   -23.9210 ca         1 JNC      -0.082300
     12 C12        -25.3310    31.2270   -24.1070 ca         1 JNC      -0.080000
     13 C16        -24.0590    33.2590   -25.5030 ca         1 JNC      -0.103000
     14 N04        -24.4210    25.6070   -24.3730 nb         1 JNC      -0.289000
     15 N07        -24.8120    27.7340   -23.3550 nb         1 JNC      -0.164000
     16 N18        -21.6650    29.0070   -24.2300 na         1 JNC       0.018500
     17 N19        -21.5450    27.8030   -24.7610 nc         1 JNC      -0.253400
     18 CL06       -26.7100    25.9910   -23.2360 cl         1 JNC      -0.149000
     19 CL14       -27.7350    31.7570   -25.2050 cl         1 JNC      -0.198000
     20 H101       -23.7780    30.3550   -22.0820 hc         1 JNC       0.070200
     21 H102       -22.2820    31.0720   -22.6520 hc         1 JNC       0.070200
     22 H151       -25.9810    33.6720   -26.3750 ha         1 JNC       0.130000
     23 H171       -22.2790    32.6380   -24.4820 ha         1 JNC       0.107000
     24 H012       -22.1400    23.1850   -26.2960 h1         1 JNC       0.048367
     25 H013       -23.1670    23.1360   -24.8590 h1         1 JNC       0.048367
     26 H011       -23.8200    23.7250   -26.3920 h1         1 JNC       0.048367
     27 H121       -25.8330    30.4330   -23.5670 ha         1 JNC       0.151000
     28 H161       -23.5620    34.0530   -26.0460 ha         1 JNC       0.117000
     29 H021       -21.5440    25.3020   -25.7290 hn         1 JNC       0.512000
     30 H181       -20.8900    29.6530   -24.3040 hn         1 JNC       0.375000
     31 N02        -22.4720    25.0320   -25.4450 nu         1 JNC      -0.907100
@<TRIPOS>BOND
     1     1    10 1   
     2     1    11 1   
     3     1    20 1   
     4     1    21 1   
     5     2     3 ar  
     6     2    12 ar  
     7     2    19 1   
     8     3    13 ar  
     9     3    22 1   
    10     4    11 ar  
    11     4    13 ar  
    12     4    23 1   
    13     5     7 ar  
    14     5     9 ar  
    15     5    17 2   
    16     6    24 1   
    17     6    25 1   
    18     6    26 1   
    19     6    31 1   
    20     7    14 ar  
    21     7    31 1   
    22     8    14 ar  
    23     8    15 ar  
    24     8    18 1   
    25     9    10 2   
    26     9    15 ar  
    27    10    16 1   
    28    11    12 ar  
    29    12    27 1   
    30    13    28 1   
    31    16    17 1   
    32    16    30 1   
    33    29    31 1   
@<TRIPOS>SUBSTRUCTURE
     1 JNC         1 TEMP              0 ****  ****    0 ROOT
