@<TRIPOS>MOLECULE
JND
   20    21     1     0     0
SMALL
bcc


@<TRIPOS>ATOM
      1 C01          3.9140    -0.5010    -0.8840 c3         1 JND      -0.090100
      2 C02          3.1250    -0.6950     0.4090 c3         1 JND      -0.007100
      3 C03          1.6700    -0.3910     0.2640 cc         1 JND      -0.066400
      4 C04          0.6130    -1.2270     0.4250 cd         1 JND      -0.083000
      5 C05         -0.6360    -0.5860     0.1880 cd         1 JND      -0.239600
      6 C06         -1.9590    -1.1470     0.2660 c          1 JND       0.737100
      7 O07         -2.2520    -2.2930     0.5590 o          1 JND      -0.608500
      8 N08         -2.9330    -0.2040    -0.0400 ns         1 JND      -0.486400
      9 C09         -2.6870     1.0830    -0.3690 cd         1 JND       0.498800
     10 N10         -1.5080     1.6040    -0.4410 nc         1 JND      -0.594100
     11 C11         -0.5030     0.7450    -0.1570 cc         1 JND       0.209300
     12 S12          1.1550     1.2110    -0.1880 ss         1 JND      -0.039800
     13 H012         4.9590    -0.7720    -0.7340 hc         1 JND       0.038700
     14 H013         3.5140    -1.1220    -1.6850 hc         1 JND       0.038700
     15 H011         3.8890     0.5370    -1.2190 hc         1 JND       0.038700
     16 H021         3.2160    -1.7280     0.7460 hc         1 JND       0.053200
     17 H022         3.5550    -0.0730     1.1980 hc         1 JND       0.053200
     18 H041         0.7200    -2.2660     0.7030 ha         1 JND       0.168000
     19 H081        -3.8980    -0.5070    -0.0090 hn         1 JND       0.330500
     20 H091        -3.5600     1.6870    -0.5790 h5         1 JND       0.049800
@<TRIPOS>BOND
     1     1     2 1   
     2     1    13 1   
     3     1    14 1   
     4     1    15 1   
     5     2     3 1   
     6     2    16 1   
     7     2    17 1   
     8     3     4 2   
     9     3    12 1   
    10     4     5 1   
    11     4    18 1   
    12     5     6 1   
    13     5    11 2   
    14     6     7 2   
    15     6     8 1   
    16     8     9 1   
    17     8    19 1   
    18     9    10 2   
    19     9    20 1   
    20    10    11 1   
    21    11    12 1   
@<TRIPOS>SUBSTRUCTURE
     1 JND         1 TEMP              0 ****  ****    0 ROOT
