@<TRIPOS>MOLECULE
JND
   20    21     1     0     0
SMALL
No Charge or Current Charge


@<TRIPOS>ATOM
      1 C01          3.9160    -0.6810    -0.8880 c3         1 JND      -0.090100
      2 C02          3.1640    -0.6150     0.4540 c3         1 JND      -0.007100
      3 C03          1.7070    -0.2730     0.2850 cc         1 JND      -0.211300
      4 C04          0.6320    -1.1270     0.3320 cd         1 JND      -0.065000
      5 C05         -0.6270    -0.4840     0.1370 cd         1 JND      -0.239600
      6 C06         -1.9460    -1.1380     0.1320 c          1 JND       0.594600
      7 O07         -2.1370    -2.3330     0.2970 o          1 JND      -0.533000
      8 N08         -2.9580    -0.2590    -0.0800 ns         1 JND      -0.419400
      9 C09         -2.7870     1.0860    -0.2690 cd         1 JND       0.498800
     10 N10         -1.5980     1.6940    -0.2670 nc         1 JND      -0.594100
     11 C11         -0.5070     0.8710    -0.0580 cc         1 JND       0.064400
     12 S12          1.1810     1.3880    -0.0020 ss         1 JND       0.250000
     13 H012         4.9680    -0.9420    -0.7250 hc         1 JND       0.038700
     14 H013         3.4700    -1.4390    -1.5430 hc         1 JND       0.038700
     15 H011         3.8770     0.2870    -1.4020 hc         1 JND       0.038700
     16 H021         3.2630    -1.5810     0.9650 hc         1 JND       0.053200
     17 H022         3.6480     0.1280     1.0990 hc         1 JND       0.053200
     18 H041         0.7320    -2.1960     0.5000 ha         1 JND       0.150000
     19 H081        -3.8870    -0.6510    -0.0940 hn         1 JND       0.330500
     20 H091        -3.7170     1.6200    -0.4220 h5         1 JND       0.049800
@<TRIPOS>BOND
     1     1     2 1   
     2     1    13 1   
     3     1    14 1   
     4     1    15 1   
     5     2     3 1   
     6     2    16 1   
     7     2    17 1   
     8     3     4 2   
     9     3    12 1   
    10     4     5 1   
    11     4    18 1   
    12     5     6 1   
    13     5    11 2   
    14     6     7 2   
    15     6     8 1   
    16     8     9 1   
    17     8    19 1   
    18     9    10 2   
    19     9    20 1   
    20    10    11 1   
    21    11    12 1   
@<TRIPOS>SUBSTRUCTURE
     1 JND         1 TEMP              0 ****  ****    0 ROOT
