@<TRIPOS>MOLECULE
JNE
   29    30     1     0     0
SMALL
No Charge or Current Charge


@<TRIPOS>ATOM
      1 C1           1.5190    -0.3740     0.0320 ca         1 JNE       0.614900
      2 C11         -2.8940    -0.1880     1.2250 ca         1 JNE      -0.091000
      3 C12         -2.8630    -0.0150    -1.2020 ca         1 JNE      -0.091000
      4 C13         -4.1400     0.4630     1.2560 ca         1 JNE      -0.114000
      5 C14         -4.1090     0.6360    -1.1710 ca         1 JNE      -0.114000
      6 C15         -4.7480     0.8750     0.0580 ca         1 JNE      -0.100000
      7 N2           2.1980     0.7700    -0.0080 nb         1 JNE      -0.760000
      8 N3           0.1760    -0.1520     0.0640 nu         1 JNE      -0.926100
      9 C4           2.1070    -1.6470     0.0460 ca         1 JNE      -0.239000
     10 C5           3.5450     0.6880    -0.0390 ca         1 JNE       0.405300
     11 C6          -0.9000    -1.1370    -0.0370 c3         1 JNE       0.272100
     12 C7           3.5050    -1.7380     0.0110 ca         1 JNE      -0.033000
     13 C8           4.2340    -0.5400    -0.0340 ca         1 JNE      -0.224000
     14 C9           4.2940     2.0060    -0.0910 c3         1 JNE      -0.145400
     15 C10         -2.2490    -0.4320    -0.0040 ca         1 JNE      -0.112300
     16 H2          -2.3740    -0.1940    -2.1570 ha         1 JNE       0.116500
     17 H3          -4.6330     0.6480     2.2080 ha         1 JNE       0.114500
     18 H4          -4.5790     0.9550    -2.0980 ha         1 JNE       0.114500
     19 H5          -5.7120     1.3780     0.0820 ha         1 JNE       0.114000
     20 H6          -0.0680     0.8310     0.0140 hn         1 JNE       0.493000
     21 H7           1.4970    -2.5430     0.0820 ha         1 JNE       0.120000
     22 H8          -0.8060    -1.7040    -0.9740 h1         1 JNE       0.043700
     23 H9          -0.8380    -1.8520     0.7950 h1         1 JNE       0.043700
     24 H10          4.0080    -2.7040     0.0180 ha         1 JNE       0.112000
     25 H11          5.3200    -0.5590    -0.0630 ha         1 JNE       0.121000
     26 H12          3.8520     2.7410     0.5910 hc         1 JNE       0.049367
     27 H13          5.3440     1.8790     0.1960 hc         1 JNE       0.049367
     28 H14          4.2710     2.4260    -1.1030 hc         1 JNE       0.049367
     29 H1          -2.4280    -0.5010     2.1570 ha         1 JNE       0.116500
@<TRIPOS>BOND
     1     1     7 ar  
     2     1     8 1   
     3     1     9 ar  
     4     2     4 ar  
     5     2    15 ar  
     6     2    29 1   
     7     3     5 ar  
     8     3    15 ar  
     9     3    16 1   
    10     4     6 ar  
    11     4    17 1   
    12     5     6 ar  
    13     5    18 1   
    14     6    19 1   
    15     7    10 ar  
    16     8    11 1   
    17     8    20 1   
    18     9    12 ar  
    19     9    21 1   
    20    10    13 ar  
    21    10    14 1   
    22    11    15 1   
    23    11    22 1   
    24    11    23 1   
    25    12    13 ar  
    26    12    24 1   
    27    13    25 1   
    28    14    26 1   
    29    14    27 1   
    30    14    28 1   
@<TRIPOS>SUBSTRUCTURE
     1 JNE         1 TEMP              0 ****  ****    0 ROOT
