@<TRIPOS>MOLECULE
JNE
   29    30     1     0     0
SMALL
bcc


@<TRIPOS>ATOM
      1 C1           1.4790    -0.2310     0.0220 ca         1 JNE       0.680200
      2 C11         -2.7530    -0.1030     1.1530 ca         1 JNE      -0.109000
      3 C12         -2.9930    -0.1320    -1.2330 ca         1 JNE      -0.109000
      4 C13         -4.0130     0.4640     1.2750 ca         1 JNE      -0.132000
      5 C14         -4.2550     0.4370    -1.1150 ca         1 JNE      -0.132000
      6 C15         -4.7680     0.7360     0.1400 ca         1 JNE      -0.118000
      7 N2           2.2730     0.8400    -0.0090 nb         1 JNE      -0.760000
      8 N3           0.1410     0.0230     0.0190 nu         1 JNE      -0.870900
      9 C4           1.9940    -1.5380     0.0790 ca         1 JNE      -0.322300
     10 C5           3.5940     0.6800     0.0260 ca         1 JNE       0.470600
     11 C6          -0.8540    -0.9980    -0.2270 c3         1 JNE       0.272100
     12 C7           3.3640    -1.6900     0.1210 ca         1 JNE      -0.051000
     13 C8           4.1910    -0.5730     0.0970 ca         1 JNE      -0.307300
     14 C9           4.4180     1.9310    -0.0210 c3         1 JNE      -0.145400
     15 C10         -2.2320    -0.4100    -0.1020 ca         1 JNE      -0.112300
     16 H2          -2.5960    -0.3620    -2.2150 ha         1 JNE       0.134500
     17 H3          -4.4090     0.6900     2.2560 ha         1 JNE       0.132500
     18 H4          -4.8370     0.6450    -2.0040 ha         1 JNE       0.132500
     19 H5          -5.7510     1.1790     0.2350 ha         1 JNE       0.132000
     20 H6          -0.1050     0.9630    -0.2510 hn         1 JNE       0.437800
     21 H7           1.3430    -2.4020     0.0890 ha         1 JNE       0.138000
     22 H8          -0.7320    -1.4550    -1.2170 h1         1 JNE       0.043700
     23 H9          -0.7350    -1.8000     0.5070 h1         1 JNE       0.043700
     24 H10          3.7910    -2.6840     0.1670 ha         1 JNE       0.130000
     25 H11          5.2680    -0.6700     0.1230 ha         1 JNE       0.139000
     26 H12          4.1640     2.5950     0.8070 hc         1 JNE       0.049367
     27 H13          5.4830     1.7130     0.0330 hc         1 JNE       0.049367
     28 H14          4.2310     2.4830    -0.9430 hc         1 JNE       0.049367
     29 H1          -2.1700    -0.3140     2.0420 ha         1 JNE       0.134500
@<TRIPOS>BOND
     1     1     7 ar  
     2     1     8 1   
     3     1     9 ar  
     4     2     4 ar  
     5     2    15 ar  
     6     2    29 1   
     7     3     5 ar  
     8     3    15 ar  
     9     3    16 1   
    10     4     6 ar  
    11     4    17 1   
    12     5     6 ar  
    13     5    18 1   
    14     6    19 1   
    15     7    10 ar  
    16     8    11 1   
    17     8    20 1   
    18     9    12 ar  
    19     9    21 1   
    20    10    13 ar  
    21    10    14 1   
    22    11    15 1   
    23    11    22 1   
    24    11    23 1   
    25    12    13 ar  
    26    12    24 1   
    27    13    25 1   
    28    14    26 1   
    29    14    27 1   
    30    14    28 1   
@<TRIPOS>SUBSTRUCTURE
     1 JNE         1 TEMP              0 ****  ****    0 ROOT
