@<TRIPOS>MOLECULE
JNF
   44    47     1     0     0
SMALL
bcc


@<TRIPOS>ATOM
      1 C01         -2.1030     1.9240     0.2740 c3         1 JNF       0.221100
      2 N02         -2.2840     0.4960     0.1110 nh         1 JNF      -0.771300
      3 C03         -1.1950    -0.2790    -0.0810 ca         1 JNF       0.926900
      4 N04         -0.0100     0.3380    -0.0700 nb         1 JNF      -0.786000
      5 C05          1.0830    -0.3920    -0.2720 ca         1 JNF       0.602100
      6 C06          2.3200     0.3690    -0.2880 cc         1 JNF      -0.281900
      7 N07          3.5990    -0.0900    -0.0400 na         1 JNF       0.049700
      8 C08          4.4500     0.9850    -0.2410 cc         1 JNF      -0.018300
      9 C09          5.8330     0.8110    -0.0490 cc         1 JNF      -0.094000
     10 C10          6.3020    -0.4030     0.3570 cd         1 JNF      -0.119000
     11 C11          5.3980    -1.4650     0.5990 cd         1 JNF      -0.163000
     12 C12          4.0660    -1.2940     0.4050 cc         1 JNF      -0.075300
     13 N13          3.7760     2.0700    -0.5950 nd         1 JNF      -0.298600
     14 C14          2.4860     1.7000    -0.6120 cd         1 JNF       0.081600
     15 C15          1.0020    -1.7650    -0.5060 ca         1 JNF      -0.452600
     16 C16         -0.2730    -2.3060    -0.4740 ca         1 JNF       0.486200
     17 N17         -1.3660    -1.6010    -0.2570 nb         1 JNF      -0.776000
     18 C18         -3.6370    -0.0480     0.0760 c6         1 JNF       0.238500
     19 C19         -4.4410     0.4980    -1.1050 c6         1 JNF      -0.087900
     20 C20         -5.8360    -0.1220    -1.1440 c6         1 JNF      -0.072900
     21 C21         -6.5760     0.0850     0.1730 c6         1 JNF      -0.077400
     22 C22         -5.7690    -0.4600     1.3460 c6         1 JNF      -0.072900
     23 C23         -4.3760     0.1630     1.3980 c6         1 JNF      -0.087900
     24 H01         -1.7200     2.3970    -0.6320 h1         1 JNF       0.042367
     25 H01A        -3.0580     2.3830     0.5140 h1         1 JNF       0.042367
     26 H01B        -1.4110     2.1510     1.0850 h1         1 JNF       0.042367
     27 H09          6.4890     1.6520    -0.2240 ha         1 JNF       0.163000
     28 H10          7.3620    -0.5560     0.5090 ha         1 JNF       0.144000
     29 H11          5.7530    -2.4220     0.9510 ha         1 JNF       0.149000
     30 H12          3.3440    -2.0670     0.6080 h4         1 JNF       0.169000
     31 H14          1.6980     2.3870    -0.8800 h4         1 JNF       0.189000
     32 H15          1.8500    -2.3840    -0.7480 ha         1 JNF       0.148000
     33 H16         -0.4120    -3.3690    -0.6380 h4         1 JNF       0.017100
     34 H18         -3.5270    -1.1220    -0.0710 h1         1 JNF       0.091700
     35 H19         -4.5360     1.5870    -1.0290 hc         1 JNF       0.045450
     36 H19A        -3.9080     0.2890    -2.0350 hc         1 JNF       0.045450
     37 H20         -6.4060     0.3030    -1.9730 hc         1 JNF       0.042200
     38 H20A        -5.7490    -1.1950    -1.3460 hc         1 JNF       0.042200
     39 H21         -6.7550     1.1550     0.3240 hc         1 JNF       0.039700
     40 H21A        -7.5580    -0.3930     0.1330 hc         1 JNF       0.039700
     41 H22         -6.2900    -0.2710     2.2880 hc         1 JNF       0.042200
     42 H22A        -5.6790    -1.5470     1.2540 hc         1 JNF       0.042200
     43 H23         -3.7940    -0.2730     2.2140 hc         1 JNF       0.045450
     44 H23A        -4.4750     1.2320     1.6130 hc         1 JNF       0.045450
@<TRIPOS>BOND
     1     1     2 1   
     2     1    24 1   
     3     1    25 1   
     4     1    26 1   
     5     2     3 1   
     6     2    18 1   
     7     3     4 ar  
     8     3    17 ar  
     9     4     5 ar  
    10     5     6 1   
    11     5    15 ar  
    12     6     7 1   
    13     6    14 2   
    14     7     8 1   
    15     7    12 1   
    16     8     9 1   
    17     8    13 2   
    18     9    10 2   
    19     9    27 1   
    20    10    11 1   
    21    10    28 1   
    22    11    12 2   
    23    11    29 1   
    24    12    30 1   
    25    13    14 1   
    26    14    31 1   
    27    15    16 ar  
    28    15    32 1   
    29    16    17 ar  
    30    16    33 1   
    31    18    19 1   
    32    18    23 1   
    33    18    34 1   
    34    19    20 1   
    35    19    35 1   
    36    19    36 1   
    37    20    21 1   
    38    20    37 1   
    39    20    38 1   
    40    21    22 1   
    41    21    39 1   
    42    21    40 1   
    43    22    23 1   
    44    22    41 1   
    45    22    42 1   
    46    23    43 1   
    47    23    44 1   
@<TRIPOS>SUBSTRUCTURE
     1 JNF         1 TEMP              0 ****  ****    0 ROOT
