@<TRIPOS>MOLECULE
JNF
   44    47     1     0     0
SMALL
No Charge or Current Charge


@<TRIPOS>ATOM
      1 C01         -2.1790     2.0870     0.1010 c3         1 JNF       0.221100
      2 N02         -2.2740     0.6080    -0.0460 nh         1 JNF      -0.771300
      3 C03         -1.1360    -0.1580    -0.4290 ca         1 JNF       0.400900
      4 N04          0.0680     0.4410    -0.3090 nb         1 JNF      -0.260000
      5 C05          1.1580    -0.2690    -0.6590 ca         1 JNF       0.273800
      6 C06          2.4620     0.3780    -0.5450 cc         1 JNF      -0.281900
      7 N07          3.6800    -0.0880    -0.1360 na         1 JNF       0.151100
      8 C08          4.5770     0.9360    -0.0550 cc         1 JNF      -0.069000
      9 C09          5.9060     0.6960     0.3870 cc         1 JNF      -0.076000
     10 C10          6.2340    -0.5730     0.8060 cd         1 JNF      -0.101000
     11 C11          5.2050    -1.5880     0.8340 cd         1 JNF      -0.145000
     12 C12          3.8940    -1.3580     0.4140 cc         1 JNF      -0.108000
     13 N13          3.9950     2.0640    -0.4310 nd         1 JNF      -0.298600
     14 C14          2.6660     1.7360    -0.7030 cd         1 JNF       0.031600
     15 C15          1.0300    -1.5760    -1.1550 ca         1 JNF      -0.304000
     16 C16         -0.2580    -2.1180    -1.2480 ca         1 JNF       0.157900
     17 N17         -1.3430    -1.4130    -0.8830 nb         1 JNF      -0.250000
     18 C18         -3.6120    -0.0410     0.1610 c6         1 JNF       0.238500
     19 C19         -4.5380     0.1890    -1.0640 c6         1 JNF      -0.087900
     20 C20         -5.9060    -0.5130    -0.8710 c6         1 JNF      -0.072900
     21 C21         -6.5910    -0.0590     0.4430 c6         1 JNF      -0.077400
     22 C22         -5.6680    -0.2830     1.6660 c6         1 JNF      -0.072900
     23 C23         -4.3050     0.4300     1.4740 c6         1 JNF      -0.087900
     24 H01         -1.5140     2.5140    -0.6620 h1         1 JNF       0.042367
     25 H01A        -3.1570     2.5670    -0.0280 h1         1 JNF       0.042367
     26 H01B        -1.7900     2.3500     1.0940 h1         1 JNF       0.042367
     27 H09          6.6270     1.5080     0.4080 ha         1 JNF       0.145000
     28 H10          7.2390    -0.7950     1.1520 ha         1 JNF       0.126000
     29 H11          5.4590    -2.5720     1.2180 ha         1 JNF       0.131000
     30 H12          3.0800    -2.0670     0.4520 h4         1 JNF       0.151000
     31 H14          1.9410     2.4930    -0.9950 h4         1 JNF       0.239000
     32 H15          1.8940    -2.1480    -1.4810 ha         1 JNF       0.130000
     33 H16         -0.4270    -3.1250    -1.6270 h4         1 JNF       0.017100
     34 H18         -3.4890    -1.1290     0.2750 h1         1 JNF       0.091700
     35 H19         -4.6980     1.2630    -1.2240 hc         1 JNF       0.045450
     36 H19A        -4.0540    -0.1950    -1.9730 hc         1 JNF       0.045450
     37 H20         -6.5600    -0.2960    -1.7270 hc         1 JNF       0.042200
     38 H20A        -5.7640    -1.6030    -0.8560 hc         1 JNF       0.042200
     39 H21         -6.8590     1.0040     0.3710 hc         1 JNF       0.039700
     40 H21A        -7.5320    -0.6090     0.5810 hc         1 JNF       0.039700
     41 H22         -6.1580     0.0900     2.5760 hc         1 JNF       0.042200
     42 H22A        -5.5060    -1.3590     1.8180 hc         1 JNF       0.042200
     43 H23         -3.6550     0.2200     2.3330 hc         1 JNF       0.045450
     44 H23A        -4.4740     1.5140     1.4630 hc         1 JNF       0.045450
@<TRIPOS>BOND
     1     1     2 1   
     2     1    24 1   
     3     1    25 1   
     4     1    26 1   
     5     2     3 1   
     6     2    18 1   
     7     3     4 ar  
     8     3    17 ar  
     9     4     5 ar  
    10     5     6 1   
    11     5    15 ar  
    12     6     7 1   
    13     6    14 2   
    14     7     8 1   
    15     7    12 1   
    16     8     9 1   
    17     8    13 2   
    18     9    10 2   
    19     9    27 1   
    20    10    11 1   
    21    10    28 1   
    22    11    12 2   
    23    11    29 1   
    24    12    30 1   
    25    13    14 1   
    26    14    31 1   
    27    15    16 ar  
    28    15    32 1   
    29    16    17 ar  
    30    16    33 1   
    31    18    19 1   
    32    18    23 1   
    33    18    34 1   
    34    19    20 1   
    35    19    35 1   
    36    19    36 1   
    37    20    21 1   
    38    20    37 1   
    39    20    38 1   
    40    21    22 1   
    41    21    39 1   
    42    21    40 1   
    43    22    23 1   
    44    22    41 1   
    45    22    42 1   
    46    23    43 1   
    47    23    44 1   
@<TRIPOS>SUBSTRUCTURE
     1 JNF         1 TEMP              0 ****  ****    0 ROOT
