@<TRIPOS>MOLECULE
JNG
   18    18     1     0     0
SMALL
bcc


@<TRIPOS>ATOM
      1 O01          4.2390    -0.8580    -0.0210 o          1 JNG      -0.815300
      2 C02          3.8930     0.3350     0.0320 c          1 JNG       0.948600
      3 O03          4.6160     1.3430     0.0950 o          1 JNG      -0.815300
      4 C04          2.3760     0.6170     0.0180 c3         1 JNG      -0.153300
      5 S05          1.4900    -0.9540    -0.0610 ss         1 JNG      -0.162000
      6 C06         -0.2030    -0.4710    -0.0240 ca         1 JNG       0.034900
      7 C07         -1.1510    -1.4980     0.0120 ca         1 JNG      -0.141000
      8 C08         -2.5050    -1.2190     0.0400 ca         1 JNG      -0.112000
      9 C09         -2.9290     0.1020     0.0340 ca         1 JNG      -0.010600
     10 CL10        -4.6270     0.4570     0.0740 cl         1 JNG      -0.156400
     11 C11         -2.0110     1.1360    -0.0010 ca         1 JNG      -0.112000
     12 C12         -0.6530     0.8480    -0.0310 ca         1 JNG      -0.141000
     13 H042         2.0910     1.1670     0.9170 h1         1 JNG       0.047200
     14 H041         2.1260     1.2440    -0.8420 h1         1 JNG       0.047200
     15 H071        -0.8310    -2.5340     0.0210 ha         1 JNG       0.140500
     16 H081        -3.2230    -2.0280     0.0690 ha         1 JNG       0.130000
     17 H111        -2.3400     2.1670    -0.0050 ha         1 JNG       0.130000
     18 H121         0.0440     1.6730    -0.0600 ha         1 JNG       0.140500
@<TRIPOS>BOND
     1     1     2 1   
     2     2     3 1   
     3     2     4 1   
     4     4     5 1   
     5     4    13 1   
     6     4    14 1   
     7     5     6 1   
     8     6     7 ar  
     9     6    12 ar  
    10     7     8 ar  
    11     7    15 1   
    12     8     9 ar  
    13     8    16 1   
    14     9    10 1   
    15     9    11 ar  
    16    11    12 ar  
    17    11    17 1   
    18    12    18 1   
@<TRIPOS>SUBSTRUCTURE
     1 JNG         1 TEMP              0 ****  ****    0 ROOT
