@<TRIPOS>MOLECULE
JNG
   18    18     1     0     0
SMALL
No Charge or Current Charge


@<TRIPOS>ATOM
      1 O01          4.5390     0.1520    -1.0500 o          1 JNG      -0.710000
      2 C02          3.9610     0.3760     0.0040 c          1 JNG       0.738000
      3 O03          4.5250     0.4290     1.0890 o          1 JNG      -0.710000
      4 C04          2.4450     0.6180    -0.0370 c3         1 JNG      -0.105400
      5 S05          1.4980    -0.9610     0.1610 ss         1 JNG      -0.083000
      6 C06         -0.2390    -0.5020     0.0890 ca         1 JNG      -0.092000
      7 C07         -1.1980    -1.5240     0.2150 ca         1 JNG      -0.123000
      8 C08         -2.5710    -1.2240     0.1660 ca         1 JNG      -0.094000
      9 C09         -2.9910     0.1040    -0.0090 ca         1 JNG       0.081000
     10 Cl10        -4.7080     0.4820    -0.0700 cl         1 JNG      -0.248000
     11 C11         -2.0420     1.1310    -0.1350 ca         1 JNG      -0.094000
     12 C12         -0.6680     0.8320    -0.0870 ca         1 JNG      -0.123000
     13 H042         2.1770     1.3070     0.7720 h1         1 JNG       0.047200
     14 H041         2.1890     1.0770    -0.9990 h1         1 JNG       0.047200
     15 H071        -0.8790    -2.5550     0.3510 ha         1 JNG       0.122500
     16 H081        -3.3070    -2.0180     0.2640 ha         1 JNG       0.112000
     17 H111        -2.3700     2.1580    -0.2700 ha         1 JNG       0.112000
     18 H121         0.0430     1.6460    -0.1870 ha         1 JNG       0.122500
@<TRIPOS>BOND
     1     1     2 1   
     2     2     3 1   
     3     2     4 1   
     4     4     5 1   
     5     4    13 1   
     6     4    14 1   
     7     5     6 1   
     8     6     7 ar  
     9     6    12 ar  
    10     7     8 ar  
    11     7    15 1   
    12     8     9 ar  
    13     8    16 1   
    14     9    10 1   
    15     9    11 ar  
    16    11    12 ar  
    17    11    17 1   
    18    12    18 1   
@<TRIPOS>SUBSTRUCTURE
     1 JNG         1 TEMP              0 ****  ****    0 ROOT
