@<TRIPOS>MOLECULE
JNH
   49    51     1     0     0
SMALL
No Charge or Current Charge


@<TRIPOS>ATOM
      1 N1          -3.8660    -0.4980    -0.2760 n          1 JNH      -0.405800
      2 C1          -5.3090    -0.4190     0.0980 c5         1 JNH       0.103700
      3 C2          -5.7010    -1.9250     0.2030 c5         1 JNH      -0.092400
      4 C3          -4.7740    -2.5760    -0.8450 c5         1 JNH      -0.099400
      5 C4          -3.4320    -1.8990    -0.4890 c5         1 JNH       0.101000
      6 C5          -3.2200     0.5730    -0.9420 c          1 JNH       0.625100
      7 C6          -1.6390     0.5380    -1.0500 c3         1 JNH       0.096500
      8 O1          -3.8660     1.5290    -1.3670 o          1 JNH      -0.598100
      9 N2          -0.9950     1.6230    -1.8720 n8         1 JNH      -0.987200
     10 C7          -0.9800     0.4880     0.3560 c3         1 JNH      -0.074100
     11 C8           3.3770     0.0800     0.2350 cp         1 JNH      -0.032000
     12 C9           2.5280    -0.9840    -0.1590 ca         1 JNH      -0.097000
     13 C10          1.1290    -0.8520    -0.1200 ca         1 JNH      -0.111500
     14 C11          0.5400     0.3500     0.3130 ca         1 JNH      -0.082300
     15 C12          1.3680     1.4160     0.7110 ca         1 JNH      -0.111500
     16 C13          2.7660     1.2820     0.6710 ca         1 JNH      -0.097000
     17 C14          7.6980    -0.3300     0.1130 ca         1 JNH      -0.106000
     18 C15          7.1000     0.9070    -0.1750 ca         1 JNH      -0.111000
     19 C16          5.7010     1.0390    -0.1350 ca         1 JNH      -0.099500
     20 C17          4.8690    -0.0620     0.1930 cp         1 JNH      -0.035000
     21 C18          5.4960    -1.3010     0.4800 ca         1 JNH      -0.099500
     22 C19          6.8950    -1.4340     0.4410 ca         1 JNH      -0.111000
     23 C20         -5.5950     0.3150     1.4480 c3         1 JNH       0.143800
     24 N3          -5.1520     1.7280     1.4810 n8         1 JNH      -0.992200
     25 H1          -5.8860     0.0660    -0.7010 h1         1 JNH       0.076700
     26 H21         -5.4990    -2.3310     1.2030 hc         1 JNH       0.050700
     27 H22         -6.7630    -2.0940    -0.0080 hc         1 JNH       0.050700
     28 H31         -4.7300    -3.6670    -0.7580 hc         1 JNH       0.054200
     29 H32         -5.0880    -2.3340    -1.8680 hc         1 JNH       0.054200
     30 H41         -2.9950    -2.3150     0.4290 h1         1 JNH       0.049200
     31 H42         -2.7080    -2.0140    -1.3050 h1         1 JNH       0.049200
     32 H6          -1.3870    -0.4060    -1.5500 h1         1 JNH       0.067700
     33 HN21        -1.3040     2.5350    -1.5160 hn         1 JNH       0.409000
     34 HN22         0.0140     1.6160    -1.6810 hn         1 JNH       0.409000
     35 H71         -1.2710     1.3860     0.9150 hc         1 JNH       0.064700
     36 H72         -1.3950    -0.3560     0.9200 hc         1 JNH       0.064700
     37 H10          0.5030    -1.6860    -0.4290 ha         1 JNH       0.111500
     38 H12          0.9300     2.3500     1.0560 ha         1 JNH       0.111500
     39 H13          3.3820     2.1170     0.9960 ha         1 JNH       0.115500
     40 H14          8.7810    -0.4330     0.0830 ha         1 JNH       0.113000
     41 H15          7.7200     1.7630    -0.4330 ha         1 JNH       0.113000
     42 H16          5.2590     2.0030    -0.3750 ha         1 JNH       0.113500
     43 H18          4.8950    -2.1660     0.7490 ha         1 JNH       0.113500
     44 H19          7.3560    -2.3930     0.6680 ha         1 JNH       0.113000
     45 H201        -5.1030    -0.2180     2.2730 h1         1 JNH       0.026700
     46 H202        -6.6790     0.2930     1.6280 h1         1 JNH       0.026700
     47 HN31        -5.5250     2.2170     0.6580 hn         1 JNH       0.399500
     48 HN32        -5.5950     2.2040     2.2760 hn         1 JNH       0.399500
     49 H9           2.9560    -1.9190    -0.5110 ha         1 JNH       0.115500
@<TRIPOS>BOND
     1     1     2 1   
     2     1     5 1   
     3     1     6 1   
     4     2     3 1   
     5     2    23 1   
     6     2    25 1   
     7     3     4 1   
     8     3    26 1   
     9     3    27 1   
    10     4     5 1   
    11     4    28 1   
    12     4    29 1   
    13     5    30 1   
    14     5    31 1   
    15     6     7 1   
    16     6     8 2   
    17     7     9 1   
    18     7    10 1   
    19     7    32 1   
    20     9    33 1   
    21     9    34 1   
    22    10    14 1   
    23    10    35 1   
    24    10    36 1   
    25    11    12 ar  
    26    11    16 ar  
    27    11    20 1   
    28    12    13 ar  
    29    12    49 1   
    30    13    14 ar  
    31    13    37 1   
    32    14    15 ar  
    33    15    16 ar  
    34    15    38 1   
    35    16    39 1   
    36    17    18 ar  
    37    17    22 ar  
    38    17    40 1   
    39    18    19 ar  
    40    18    41 1   
    41    19    20 ar  
    42    19    42 1   
    43    20    21 ar  
    44    21    22 ar  
    45    21    43 1   
    46    22    44 1   
    47    23    24 1   
    48    23    45 1   
    49    23    46 1   
    50    24    47 1   
    51    24    48 1   
@<TRIPOS>SUBSTRUCTURE
     1 JNH         1 TEMP              0 ****  ****    0 ROOT
