@<TRIPOS>MOLECULE
JNH
   49    51     1     0     0
SMALL
abcg2


@<TRIPOS>ATOM
      1 N1          -3.7650    -0.3760    -0.3260 n          1 JNH      -0.405800
      2 C1          -5.2070    -0.3730    -0.0860 c5         1 JNH       0.103700
      3 C2          -5.6480    -1.8240    -0.3740 c5         1 JNH      -0.092400
      4 C3          -4.3950    -2.5380    -0.8820 c5         1 JNH      -0.099400
      5 C4          -3.2600    -1.7380    -0.2580 c5         1 JNH       0.101000
      6 C5          -3.1190     0.7190    -0.7660 c          1 JNH       0.625100
      7 C6          -1.6000     0.6310    -0.8930 c3         1 JNH       0.096500
      8 O1          -3.6950     1.7720    -1.0050 o          1 JNH      -0.598100
      9 N2          -1.1360     1.6740    -1.7780 n8         1 JNH      -0.987200
     10 C7          -0.9970     0.6680     0.5350 c3         1 JNH      -0.074100
     11 C8           3.2820     0.1030     0.2760 cp         1 JNH      -0.032000
     12 C9           2.4020    -0.9810     0.2430 ca         1 JNH      -0.097000
     13 C10          1.0350    -0.7920     0.3520 ca         1 JNH      -0.111500
     14 C11          0.4910     0.4830     0.4980 ca         1 JNH      -0.082300
     15 C12          1.3670     1.5630     0.5400 ca         1 JNH      -0.111500
     16 C13          2.7390     1.3780     0.4330 ca         1 JNH      -0.097000
     17 C14          7.5060    -0.4750    -0.1020 ca         1 JNH      -0.106000
     18 C15          6.8990     0.6390    -0.6650 ca         1 JNH      -0.111000
     19 C16          5.5300     0.8260    -0.5410 ca         1 JNH      -0.099500
     20 C17          4.7400    -0.0950     0.1490 cp         1 JNH      -0.035000
     21 C18          5.3630    -1.2110     0.7110 ca         1 JNH      -0.099500
     22 C19          6.7320    -1.3990     0.5870 ca         1 JNH      -0.111000
     23 C20         -5.5610     0.0180     1.3450 c3         1 JNH       0.143800
     24 N3          -5.0810     1.3340     1.7160 n8         1 JNH      -0.992200
     25 H1          -5.6780     0.3280    -0.7780 h1         1 JNH       0.076700
     26 H21         -6.0060    -2.2960     0.5440 hc         1 JNH       0.050700
     27 H22         -6.4660    -1.8620    -1.0920 hc         1 JNH       0.050700
     28 H31         -4.3640    -3.5920    -0.6070 hc         1 JNH       0.054200
     29 H32         -4.3250    -2.4720    -1.9690 hc         1 JNH       0.054200
     30 H41         -3.0910    -2.0380     0.7810 h1         1 JNH       0.049200
     31 H42         -2.3230    -1.8610    -0.7940 h1         1 JNH       0.049200
     32 H6          -1.3150    -0.3220    -1.3460 h1         1 JNH       0.067700
     33 HN21        -1.3990     2.5820    -1.4150 hn         1 JNH       0.409000
     34 HN22        -0.1240     1.6590    -1.8160 hn         1 JNH       0.409000
     35 H71         -1.2560     1.6250     0.9950 hc         1 JNH       0.064700
     36 H72         -1.4500    -0.1130     1.1510 hc         1 JNH       0.064700
     37 H10          0.3780    -1.6540     0.3180 ha         1 JNH       0.111500
     38 H12          0.9790     2.5660     0.6730 ha         1 JNH       0.111500
     39 H13          3.3920     2.2400     0.4920 ha         1 JNH       0.115500
     40 H14          8.5740    -0.6230    -0.2000 ha         1 JNH       0.113000
     41 H15          7.4900     1.3630    -1.2120 ha         1 JNH       0.113000
     42 H16          5.0690     1.6890    -1.0060 ha         1 JNH       0.113500
     43 H18          4.7770    -1.9330     1.2670 ha         1 JNH       0.113500
     44 H19          7.1950    -2.2690     1.0360 ha         1 JNH       0.113000
     45 H201        -5.1140    -0.7150     2.0260 h1         1 JNH       0.026700
     46 H202        -6.6510    -0.1060     1.4400 h1         1 JNH       0.026700
     47 HN31        -5.4650     2.0280     1.0890 hn         1 JNH       0.399500
     48 HN32        -5.4290     1.5640     2.6380 hn         1 JNH       0.399500
     49 H9           2.7860    -1.9860     0.1090 ha         1 JNH       0.115500
@<TRIPOS>BOND
     1     1     2 1   
     2     1     5 1   
     3     1     6 1   
     4     2     3 1   
     5     2    23 1   
     6     2    25 1   
     7     3     4 1   
     8     3    26 1   
     9     3    27 1   
    10     4     5 1   
    11     4    28 1   
    12     4    29 1   
    13     5    30 1   
    14     5    31 1   
    15     6     7 1   
    16     6     8 2   
    17     7     9 1   
    18     7    10 1   
    19     7    32 1   
    20     9    33 1   
    21     9    34 1   
    22    10    14 1   
    23    10    35 1   
    24    10    36 1   
    25    11    12 ar  
    26    11    16 ar  
    27    11    20 1   
    28    12    13 ar  
    29    12    49 1   
    30    13    14 ar  
    31    13    37 1   
    32    14    15 ar  
    33    15    16 ar  
    34    15    38 1   
    35    16    39 1   
    36    17    18 ar  
    37    17    22 ar  
    38    17    40 1   
    39    18    19 ar  
    40    18    41 1   
    41    19    20 ar  
    42    19    42 1   
    43    20    21 ar  
    44    21    22 ar  
    45    21    43 1   
    46    22    44 1   
    47    23    24 1   
    48    23    45 1   
    49    23    46 1   
    50    24    47 1   
    51    24    48 1   
@<TRIPOS>SUBSTRUCTURE
     1 JNH         1 TEMP              0 ****  ****    0 ROOT
