@<TRIPOS>MOLECULE
JNI
   69    74     1     0     0
SMALL
No Charge or Current Charge


@<TRIPOS>ATOM
      1 C2           6.3380     2.5810    -1.5300 ca         1 JNI       0.404900
      2 C4           6.2900     3.1230     0.6770 ca         1 JNI       0.165900
      3 C5           5.3130     2.1380     0.8800 ca         1 JNI      -0.338000
      4 C6           4.8940     1.3850    -0.2310 ca         1 JNI       0.431900
      5 C11          1.0450    -1.3470    -1.5590 ca         1 JNI      -0.092000
      6 C12          0.1830    -2.4440    -1.3890 ca         1 JNI      -0.116500
      7 C15          2.8710    -2.6330    -0.5970 ca         1 JNI      -0.092000
      8 C16          3.4450    -0.0550     1.1490 ca         1 JNI       0.282000
      9 C17          4.3610    -0.7790     1.9400 ca         1 JNI      -0.107000
     10 C18          4.0010    -1.2800     3.2000 ca         1 JNI      -0.101000
     11 C19          2.7080    -1.0610     3.6910 ca         1 JNI      -0.110000
     12 C21          2.1230     0.1800     1.6470 cp         1 JNI      -0.037000
     13 C23          1.3850     2.1810     0.2530 ca         1 JNI      -0.084000
     14 C24          0.4020     2.8820    -0.4610 ca         1 JNI      -0.109000
     15 C27         -0.2410     0.4660     0.7890 ca         1 JNI      -0.102000
     16 C31         -5.1780    -0.3970    -0.1950 ca         1 JNI       0.397900
     17 C33         -2.9280    -0.7830     0.0960 ca         1 JNI       0.166400
     18 C35         -6.7490    -2.4000    -0.4220 c6         1 JNI       0.187300
     19 C36         -8.1800    -2.8370     0.0330 c6         1 JNI       0.130800
     20 C38         -9.0470    -0.5760    -0.2960 c6         1 JNI       0.130800
     21 C39         -7.6460    -0.0600    -0.7620 c6         1 JNI       0.187300
     22 N1           6.8540     2.8050    -2.7600 nv         1 JNI      -1.056900
     23 N3           6.8110     3.3490    -0.5420 nb         1 JNI      -0.277000
     24 N7           5.4140     1.6210    -1.4520 nb         1 JNI      -0.335000
     25 N8           3.9020     0.3800    -0.1210 nh         1 JNI      -0.812100
     26 C9           3.3330    -0.2380    -1.3560 c3         1 JNI       0.276100
     27 C10          2.3930    -1.4300    -1.1550 ca         1 JNI      -0.115300
     28 C13          0.6620    -3.6330    -0.8150 ca         1 JNI      -0.104000
     29 C14          2.0070    -3.7280    -0.4210 ca         1 JNI      -0.116500
     30 C20          1.7830    -0.3400     2.9230 ca         1 JNI      -0.098000
     31 C22          1.0870     0.9500     0.8830 cp         1 JNI      -0.036000
     32 C25         -0.9030     2.3710    -0.5520 ca         1 JNI      -0.103000
     33 C26         -1.2550     1.1500     0.0750 cp         1 JNI      -0.010000
     34 C28         -2.6470     0.6010    -0.0190 cp         1 JNI      -0.215000
     35 C29         -3.7770     1.4290    -0.2270 ca         1 JNI       0.166400
     36 N30         -5.0270     0.9390    -0.3130 nb         1 JNI      -0.251000
     37 N32         -4.1760    -1.2780     0.0080 nb         1 JNI      -0.251000
     38 N34         -6.5010    -0.9180    -0.2820 nh         1 JNI      -0.772300
     39 N37         -9.2640    -2.0210    -0.5840 n7         1 JNI      -0.841400
     40 H1           6.6570     3.7400     1.4960 h4         1 JNI       0.015100
     41 H2           4.8990     1.9820     1.8700 ha         1 JNI       0.139000
     42 H3           0.6610    -0.4290    -1.9990 ha         1 JNI       0.118500
     43 H4          -0.8560    -2.3710    -1.7020 ha         1 JNI       0.112500
     44 H5           3.9120    -2.7160    -0.2930 ha         1 JNI       0.118500
     45 H6           5.3630    -0.9610     1.5620 ha         1 JNI       0.130000
     46 H7           4.7230    -1.8390     3.7920 ha         1 JNI       0.119000
     47 H8           2.4240    -1.4470     4.6680 ha         1 JNI       0.117000
     48 H10          0.6520     3.8230    -0.9450 ha         1 JNI       0.116000
     49 H11         -0.4800    -0.4730     1.2790 ha         1 JNI       0.114000
     50 H12         -2.1380    -1.5150     0.2490 h4         1 JNI       0.021600
     51 H13         -6.0320    -2.9810     0.1750 h1         1 JNI       0.063450
     52 H14         -6.6070    -2.6980    -1.4720 h1         1 JNI       0.063450
     53 H15         -8.3270    -3.8990    -0.2130 h1         1 JNI       0.062950
     54 H16         -8.2400    -2.7480     1.1280 h1         1 JNI       0.062950
     55 H17         -9.1390    -0.4060     0.7880 h1         1 JNI       0.062950
     56 H18         -9.8320     0.0230    -0.7830 h1         1 JNI       0.062950
     57 H19         -7.6350    -0.0150    -1.8610 h1         1 JNI       0.063450
     58 H20         -7.5490     0.9730    -0.3990 h1         1 JNI       0.063450
     59 H21          7.3800     3.6610    -2.9130 hn         1 JNI       0.488000
     60 H22          6.3730     2.4100    -3.5640 hn         1 JNI       0.488000
     61 H23          2.7960     0.5330    -1.9260 h1         1 JNI       0.073700
     62 H24          4.1520    -0.5970    -1.9960 h1         1 JNI       0.073700
     63 H25         -0.0060    -4.4810    -0.6820 ha         1 JNI       0.111000
     64 H26          2.3810    -4.6500     0.0180 ha         1 JNI       0.112500
     65 H27          0.7870    -0.1690     3.3260 ha         1 JNI       0.120000
     66 H28         -1.6400     2.9260    -1.1250 ha         1 JNI       0.113000
     67 H29         -3.6830     2.5100    -0.3130 h4         1 JNI       0.021600
     68 H30         -9.2260    -2.1550    -1.6030 hn         1 JNI       0.403000
     69 H9           2.3860     2.5980     0.3240 ha         1 JNI       0.125000
@<TRIPOS>BOND
     1     1    22 1   
     2     1    23 ar  
     3     1    24 ar  
     4     2     3 ar  
     5     2    23 ar  
     6     2    40 1   
     7     3     4 ar  
     8     3    41 1   
     9     4    24 ar  
    10     4    25 1   
    11     5     6 ar  
    12     5    27 ar  
    13     5    42 1   
    14     6    28 ar  
    15     6    43 1   
    16     7    27 ar  
    17     7    29 ar  
    18     7    44 1   
    19     8     9 ar  
    20     8    12 ar  
    21     8    25 1   
    22     9    10 ar  
    23     9    45 1   
    24    10    11 ar  
    25    10    46 1   
    26    11    30 ar  
    27    11    47 1   
    28    12    30 ar  
    29    12    31 1   
    30    13    14 ar  
    31    13    31 ar  
    32    13    69 1   
    33    14    32 ar  
    34    14    48 1   
    35    15    31 ar  
    36    15    33 ar  
    37    15    49 1   
    38    16    36 ar  
    39    16    37 ar  
    40    16    38 1   
    41    17    34 ar  
    42    17    37 ar  
    43    17    50 1   
    44    18    19 1   
    45    18    38 1   
    46    18    51 1   
    47    18    52 1   
    48    19    39 1   
    49    19    53 1   
    50    19    54 1   
    51    20    21 1   
    52    20    39 1   
    53    20    55 1   
    54    20    56 1   
    55    21    38 1   
    56    21    57 1   
    57    21    58 1   
    58    22    59 1   
    59    22    60 1   
    60    25    26 1   
    61    26    27 1   
    62    26    61 1   
    63    26    62 1   
    64    28    29 ar  
    65    28    63 1   
    66    29    64 1   
    67    30    65 1   
    68    32    33 ar  
    69    32    66 1   
    70    33    34 1   
    71    34    35 ar  
    72    35    36 ar  
    73    35    67 1   
    74    39    68 1   
@<TRIPOS>SUBSTRUCTURE
     1 JNI         1 TEMP              0 ****  ****    0 ROOT
