@<TRIPOS>MOLECULE
JNI
   69    74     1     0     0
SMALL
bcc


@<TRIPOS>ATOM
      1 C2           5.6870     2.0650    -1.7550 ca         1 JNI       0.930900
      2 C4           5.8800     2.7230     0.3850 ca         1 JNI       0.494200
      3 C5           4.8620     1.8880     0.7800 ca         1 JNI      -0.486600
      4 C6           4.2680     1.1160    -0.2410 ca         1 JNI       0.760200
      5 C11          2.0710    -2.8730    -0.4440 ca         1 JNI      -0.110000
      6 C12          2.4250    -4.2150    -0.3710 ca         1 JNI      -0.134500
      7 C15          4.1670    -2.3710    -1.4950 ca         1 JNI      -0.110000
      8 C16          2.8670    -0.0590     1.3420 ca         1 JNI       0.143600
      9 C17          3.7200    -0.8500     2.1040 ca         1 JNI      -0.125000
     10 C18          3.3600    -1.2410     3.3840 ca         1 JNI      -0.119000
     11 C19          2.1280    -0.8600     3.8980 ca         1 JNI      -0.128000
     12 C21          1.6270     0.3360     1.8520 cp         1 JNI      -0.037000
     13 C23          1.0770     2.3950     0.5360 ca         1 JNI      -0.102000
     14 C24          0.1710     3.1470    -0.1970 ca         1 JNI      -0.127000
     15 C27         -0.6090     0.7120     0.8480 ca         1 JNI      -0.120000
     16 C31         -5.3890     0.0130    -0.5570 ca         1 JNI       0.923900
     17 C33         -3.1720    -0.4050    -0.3080 ca         1 JNI       0.494700
     18 C35         -6.9280    -1.8610    -0.9710 c6         1 JNI       0.187300
     19 C36         -8.0890    -2.2990    -0.0830 c6         1 JNI       0.130800
     20 C38         -8.9350    -0.0640    -0.0210 c6         1 JNI       0.130800
     21 C39         -7.7890     0.4180    -0.9050 c6         1 JNI       0.187300
     22 N1           6.1180     2.1200    -3.0350 nv         1 JNI      -0.946500
     23 N3           6.3190     2.8350    -0.8660 nb         1 JNI      -0.803000
     24 N7           4.6910     1.2190    -1.4960 nb         1 JNI      -0.861000
     25 N8           3.2320     0.2740     0.0120 nh         1 JNI      -0.673700
     26 C9           2.5680    -0.4810    -1.0440 c3         1 JNI       0.276100
     27 C10          2.9360    -1.9400    -1.0060 ca         1 JNI      -0.115300
     28 C13          3.6530    -4.6360    -0.8610 ca         1 JNI      -0.122000
     29 C14          4.5240    -3.7100    -1.4250 ca         1 JNI      -0.134500
     30 C20          1.2700    -0.0860     3.1330 ca         1 JNI      -0.116000
     31 C22          0.6910     1.1630     1.0600 cp         1 JNI      -0.036000
     32 C25         -1.1140     2.6790    -0.4240 ca         1 JNI      -0.121000
     33 C26         -1.5250     1.4530     0.1010 cp         1 JNI      -0.010000
     34 C28         -2.8840     0.9470    -0.1310 cp         1 JNI      -0.345600
     35 C29         -4.0030     1.7750    -0.2040 ca         1 JNI       0.494700
     36 N30         -5.2260     1.3360    -0.4120 nb         1 JNI      -0.777000
     37 N32         -4.3840    -0.8750    -0.5170 nb         1 JNI      -0.777000
     38 N34         -6.6390    -0.4550    -0.7530 nh         1 JNI      -0.772300
     39 N37         -9.2710    -1.4640    -0.2130 n7         1 JNI      -0.786200
     40 H1           6.3730     3.3480     1.1220 h4         1 JNI       0.015100
     41 H2           4.5430     1.8490     1.8100 ha         1 JNI       0.157000
     42 H3           1.1120    -2.5490    -0.0580 ha         1 JNI       0.136500
     43 H4           1.7400    -4.9300     0.0680 ha         1 JNI       0.130500
     44 H5           4.8460    -1.6530    -1.9390 ha         1 JNI       0.136500
     45 H6           4.6660    -1.1630     1.6820 ha         1 JNI       0.148000
     46 H7           4.0330    -1.8530     3.9700 ha         1 JNI       0.137000
     47 H8           1.8350    -1.1660     4.8940 ha         1 JNI       0.135000
     48 H10          0.4710     4.1040    -0.6040 ha         1 JNI       0.134000
     49 H11         -0.9060    -0.2370     1.2790 ha         1 JNI       0.132000
     50 H12         -2.3740    -1.1420    -0.3000 h4         1 JNI       0.021600
     51 H13         -6.0420    -2.4540    -0.7630 h1         1 JNI       0.063450
     52 H14         -7.1940    -2.0160    -2.0240 h1         1 JNI       0.063450
     53 H15         -8.3510    -3.3320    -0.3220 h1         1 JNI       0.062950
     54 H16         -7.7640    -2.2810     0.9620 h1         1 JNI       0.062950
     55 H17         -8.6620     0.0860     1.0280 h1         1 JNI       0.062950
     56 H18         -9.8170     0.5480    -0.2160 h1         1 JNI       0.062950
     57 H19         -8.1100     0.4110    -1.9550 h1         1 JNI       0.063450
     58 H20         -7.5120     1.4370    -0.6520 h1         1 JNI       0.063450
     59 H21          6.7030     2.8920    -3.3030 hn         1 JNI       0.432800
     60 H22          5.5230     1.7410    -3.7520 hn         1 JNI       0.432800
     61 H23          1.4880    -0.3620    -0.9280 h1         1 JNI       0.073700
     62 H24          2.8440    -0.0360    -1.9970 h1         1 JNI       0.073700
     63 H25          3.9310    -5.6810    -0.8080 ha         1 JNI       0.129000
     64 H26          5.4810    -4.0330    -1.8140 ha         1 JNI       0.130500
     65 H27          0.3140     0.2180     3.5410 ha         1 JNI       0.138000
     66 H28         -1.7940     3.2650    -1.0300 ha         1 JNI       0.131000
     67 H29         -3.8990     2.8490    -0.0730 h4         1 JNI       0.021600
     68 H30         -9.6590    -1.5850    -1.1420 hn         1 JNI       0.347800
     69 H9           2.0730     2.7780     0.7160 ha         1 JNI       0.143000
@<TRIPOS>BOND
     1     1    22 1   
     2     1    23 ar  
     3     1    24 ar  
     4     2     3 ar  
     5     2    23 ar  
     6     2    40 1   
     7     3     4 ar  
     8     3    41 1   
     9     4    24 ar  
    10     4    25 1   
    11     5     6 ar  
    12     5    27 ar  
    13     5    42 1   
    14     6    28 ar  
    15     6    43 1   
    16     7    27 ar  
    17     7    29 ar  
    18     7    44 1   
    19     8     9 ar  
    20     8    12 ar  
    21     8    25 1   
    22     9    10 ar  
    23     9    45 1   
    24    10    11 ar  
    25    10    46 1   
    26    11    30 ar  
    27    11    47 1   
    28    12    30 ar  
    29    12    31 1   
    30    13    14 ar  
    31    13    31 ar  
    32    13    69 1   
    33    14    32 ar  
    34    14    48 1   
    35    15    31 ar  
    36    15    33 ar  
    37    15    49 1   
    38    16    36 ar  
    39    16    37 ar  
    40    16    38 1   
    41    17    34 ar  
    42    17    37 ar  
    43    17    50 1   
    44    18    19 1   
    45    18    38 1   
    46    18    51 1   
    47    18    52 1   
    48    19    39 1   
    49    19    53 1   
    50    19    54 1   
    51    20    21 1   
    52    20    39 1   
    53    20    55 1   
    54    20    56 1   
    55    21    38 1   
    56    21    57 1   
    57    21    58 1   
    58    22    59 1   
    59    22    60 1   
    60    25    26 1   
    61    26    27 1   
    62    26    61 1   
    63    26    62 1   
    64    28    29 ar  
    65    28    63 1   
    66    29    64 1   
    67    30    65 1   
    68    32    33 ar  
    69    32    66 1   
    70    33    34 1   
    71    34    35 ar  
    72    35    36 ar  
    73    35    67 1   
    74    39    68 1   
@<TRIPOS>SUBSTRUCTURE
     1 JNI         1 TEMP              0 ****  ****    0 ROOT
