@<TRIPOS>MOLECULE
JNJ
   61    66     1     0     0
SMALL
No Charge or Current Charge


@<TRIPOS>ATOM
      1 C1           3.8300    -2.8820     0.1600 cc         1 JNJ       0.292900
      2 C2           2.3760    -2.7980     0.1740 ca         1 JNJ      -0.156900
      3 C3           1.3700    -3.7440     0.4230 ca         1 JNJ      -0.038000
      4 C7           2.0780    -1.4980    -0.1070 ca         1 JNJ      -0.086200
      5 C8          -4.4670    -0.7330    -0.0160 ca         1 JNJ       0.058800
      6 C9          -3.6440    -0.5000    -1.1330 ca         1 JNJ      -0.149000
      7 C10         -2.2970    -0.8910    -1.1130 ca         1 JNJ       0.204000
      8 C11         -1.7370    -1.5310     0.0220 cp         1 JNJ      -0.082000
      9 C12         -2.5840    -1.7830     1.1270 ca         1 JNJ      -0.059000
     10 C13         -3.9330    -1.3880     1.1090 ca         1 JNJ      -0.126000
     11 C14         -6.2530     0.9600    -0.1620 cc         1 JNJ       0.416800
     12 C15         -7.9510    -0.3480     0.2080 cd         1 JNJ       0.234900
     13 C16         -6.8560    -1.1760     0.2400 cc         1 JNJ      -0.220000
     14 C19         -4.7940     2.5890     1.9960 c3         1 JNJ       0.154600
     15 C20          4.6110    -4.1460     0.4220 c          1 JNJ       0.560800
     16 C21          3.8270     2.7780     0.0400 ca         1 JNJ      -0.272900
     17 C22          3.7170     1.4310     0.4190 ca         1 JNJ      -0.006000
     18 C24          3.2450     0.9240    -1.9380 ca         1 JNJ      -0.047000
     19 C27          4.1100     3.9680     0.7560 cc         1 JNJ       0.589800
     20 N1           4.3880    -1.6830    -0.1160 nd         1 JNJ      -0.497100
     21 N2           3.2860    -0.8540    -0.2760 na         1 JNJ       0.196800
     22 C4           0.0290    -3.3080     0.3670 ca         1 JNJ      -0.111000
     23 C5          -0.3040    -1.9530     0.0660 cp         1 JNJ      -0.044000
     24 C6           0.7560    -1.0290    -0.1660 ca         1 JNJ       0.180000
     25 F1           0.4980     0.2780    -0.4000 f          1 JNJ      -0.162000
     26 N3          -5.8040    -0.3370    -0.0240 na         1 JNJ      -0.073300
     27 N4          -7.5790     0.9670    -0.0370 nd         1 JNJ      -0.674000
     28 N5          -4.2930     2.4300     0.6110 n3         1 JNJ      -0.730600
     29 C18         -3.3770     3.5210     0.2100 c3         1 JNJ       0.154600
     30 O1           4.1290    -5.2420     0.6730 o          1 JNJ      -0.603100
     31 C23          3.4170     0.4930    -0.5960 ca         1 JNJ      -0.031200
     32 C25          3.3680     2.2900    -2.2740 ca         1 JNJ      -0.114000
     33 C26          3.6630     3.1920    -1.2450 ca         1 JNJ       0.109100
     34 O2           3.8270     4.5510    -1.3590 os         1 JNJ      -0.105100
     35 N7           4.1230     5.0440    -0.0140 nd         1 JNJ      -0.368700
     36 H3           1.6030    -4.7820     0.6540 ha         1 JNJ       0.152000
     37 HN61         6.3750    -3.1290     0.1590 hn         1 JNJ       0.325500
     38 HN62         6.5420    -4.8380     0.5320 hn         1 JNJ       0.325500
     39 H9          -4.0450    -0.0230    -2.0230 ha         1 JNJ       0.144000
     40 H12         -2.1860    -2.2770     2.0110 ha         1 JNJ       0.127000
     41 H13         -4.5600    -1.5800     1.9760 ha         1 JNJ       0.133000
     42 H15         -8.9890    -0.6220     0.3580 h4         1 JNJ       0.040100
     43 H16         -6.7610    -2.2410     0.4120 h4         1 JNJ       0.160000
     44 H191        -5.4380     3.4750     2.0800 h1         1 JNJ       0.034200
     45 H192        -5.3740     1.7100     2.3070 h1         1 JNJ       0.034200
     46 H193        -3.9590     2.7040     2.6990 h1         1 JNJ       0.034200
     47 H22          3.8560     1.1160     1.4510 ha         1 JNJ       0.137000
     48 H24          3.0150     0.1970    -2.7150 ha         1 JNJ       0.138000
     49 H4          -0.7670    -4.0250     0.5520 ha         1 JNJ       0.125000
     50 H171        -4.9460     2.0980    -1.3920 h1         1 JNJ       0.056700
     51 H172        -6.0430     3.0690    -0.4250 h1         1 JNJ       0.056700
     52 H181        -2.5440     3.6100     0.9200 h1         1 JNJ       0.034200
     53 H182        -2.9520     3.3250    -0.7840 h1         1 JNJ       0.034200
     54 H183        -3.9050     4.4840     0.1760 h1         1 JNJ       0.034200
     55 H25          3.2390     2.6340    -3.2970 ha         1 JNJ       0.147000
     56 HN81         4.0190     3.2420     2.6430 hn         1 JNJ       0.472000
     57 HN82         4.2880     4.9420     2.5170 hn         1 JNJ       0.472000
     58 F2          -1.5470    -0.6750    -2.2180 f          1 JNJ      -0.169000
     59 N6           5.9630    -4.0280     0.3660 nt         1 JNJ      -0.593000
     60 C17         -5.3820     2.1930    -0.3890 c3         1 JNJ       0.138500
     61 N8           4.3330     4.0260     2.0830 nv         1 JNJ      -0.985200
@<TRIPOS>BOND
     1     1     2 1   
     2     1    15 1   
     3     1    20 2   
     4     2     3 ar  
     5     2     4 ar  
     6     3    22 ar  
     7     3    36 1   
     8     4    21 1   
     9     4    24 ar  
    10     5     6 ar  
    11     5    10 ar  
    12     5    26 1   
    13     6     7 ar  
    14     6    39 1   
    15     7     8 ar  
    16     7    58 1   
    17     8     9 ar  
    18     8    23 1   
    19     9    10 ar  
    20     9    40 1   
    21    10    41 1   
    22    11    26 1   
    23    11    27 2   
    24    11    60 1   
    25    12    13 2   
    26    12    27 1   
    27    12    42 1   
    28    13    26 1   
    29    13    43 1   
    30    14    28 1   
    31    14    44 1   
    32    14    45 1   
    33    14    46 1   
    34    15    30 2   
    35    15    59 1   
    36    16    17 ar  
    37    16    19 1   
    38    16    33 ar  
    39    17    31 ar  
    40    17    47 1   
    41    18    31 ar  
    42    18    32 ar  
    43    18    48 1   
    44    19    35 2   
    45    19    61 1   
    46    20    21 1   
    47    21    31 1   
    48    22    23 ar  
    49    22    49 1   
    50    23    24 ar  
    51    24    25 1   
    52    28    29 1   
    53    28    60 1   
    54    29    52 1   
    55    29    53 1   
    56    29    54 1   
    57    32    33 ar  
    58    32    55 1   
    59    33    34 1   
    60    34    35 1   
    61    37    59 1   
    62    38    59 1   
    63    50    60 1   
    64    51    60 1   
    65    56    61 1   
    66    57    61 1   
@<TRIPOS>SUBSTRUCTURE
     1 JNJ         1 TEMP              0 ****  ****    0 ROOT
