@<TRIPOS>MOLECULE
JNJ
   61    66     1     0     0
SMALL
bcc


@<TRIPOS>ATOM
      1 C1           3.6890    -2.7420     0.2360 cc         1 JNJ       0.292900
      2 C2           2.2660    -2.7460     0.2030 ca         1 JNJ      -0.156900
      3 C3           1.2510    -3.6940     0.3890 ca         1 JNJ      -0.056000
      4 C7           1.9400    -1.4090    -0.0700 ca         1 JNJ      -0.086200
      5 C8          -4.5020    -0.7540    -0.0220 ca         1 JNJ       0.058800
      6 C9          -3.7050    -0.5180    -1.1320 ca         1 JNJ      -0.167000
      7 C10         -2.3790    -0.8880    -1.0790 ca         1 JNJ       0.168900
      8 C11         -1.8120    -1.5120     0.0240 cp         1 JNJ      -0.082000
      9 C12         -2.6520    -1.7720     1.1050 ca         1 JNJ      -0.077000
     10 C13         -3.9840    -1.3950     1.0930 ca         1 JNJ      -0.144000
     11 C14         -6.3770     0.8710    -0.2340 cc         1 JNJ       0.416800
     12 C15         -8.0350    -0.4510     0.0510 cd         1 JNJ       0.300200
     13 C16         -6.9230    -1.2290     0.1500 cc         1 JNJ      -0.252600
     14 C19         -5.1080     2.4980     1.8990 c3         1 JNJ       0.154600
     15 C20          4.5830    -3.8940     0.4940 c          1 JNJ       0.627800
     16 C21          4.2630     2.7370     0.0570 ca         1 JNJ      -0.272900
     17 C22          4.0560     1.4090     0.4080 ca         1 JNJ      -0.024000
     18 C24          2.8360     1.1600    -1.6830 ca         1 JNJ      -0.065000
     19 C27          4.9270     3.8680     0.6480 cc         1 JNJ       0.589800
     20 N1           4.1560    -1.5400     0.0030 nd         1 JNJ      -0.497100
     21 N2           3.1190    -0.7320    -0.1850 na         1 JNJ       0.196800
     22 C4          -0.0520    -3.2700     0.3040 ca         1 JNJ      -0.129000
     23 C5          -0.3950    -1.9210     0.0500 cp         1 JNJ      -0.044000
     24 C6           0.6080    -0.9990    -0.1230 ca         1 JNJ       0.144900
     25 F1           0.3210     0.2930    -0.3060 f          1 JNJ      -0.126900
     26 N3          -5.8630    -0.3770    -0.0420 na         1 JNJ      -0.124000
     27 N4          -7.6820     0.8500    -0.1800 nd         1 JNJ      -0.674000
     28 N5          -4.5300     2.2060     0.6080 n3         1 JNJ      -0.730600
     29 C18         -3.4960     3.1490     0.2490 c3         1 JNJ       0.154600
     30 O1           4.1100    -5.0010     0.7120 o          1 JNJ      -0.603100
     31 C23          3.3340     0.6360    -0.4800 ca         1 JNJ      -0.031200
     32 C25          3.0330     2.4820    -2.0270 ca         1 JNJ      -0.132000
     33 C26          3.7600     3.2510    -1.1270 ca         1 JNJ       0.109100
     34 O2           4.0890     4.5390    -1.2410 os         1 JNJ      -0.006600
     35 N7           4.8140     4.9160    -0.1150 nd         1 JNJ      -0.467200
     36 H3           1.4850    -4.7280     0.5920 ha         1 JNJ       0.170000
     37 HN61         6.2400    -2.7000     0.2840 hn         1 JNJ       0.325500
     38 HN62         6.5630    -4.3560     0.6470 hn         1 JNJ       0.325500
     39 H9          -4.1070    -0.0650    -2.0290 ha         1 JNJ       0.162000
     40 H12         -2.2440    -2.2550     1.9840 ha         1 JNJ       0.145000
     41 H13         -4.6080    -1.5770     1.9570 ha         1 JNJ       0.151000
     42 H15         -9.0660    -0.7580     0.1350 h4         1 JNJ       0.040100
     43 H16         -6.7860    -2.2850     0.3140 h4         1 JNJ       0.178000
     44 H191        -5.6190     3.4730     1.9340 h1         1 JNJ       0.034200
     45 H192        -5.8350     1.7330     2.1760 h1         1 JNJ       0.034200
     46 H193        -4.3290     2.4990     2.6620 h1         1 JNJ       0.034200
     47 H22          4.4360     0.9920     1.3310 ha         1 JNJ       0.155000
     48 H24          2.3020     0.5120    -2.3650 ha         1 JNJ       0.156000
     49 H4          -0.8560    -3.9840     0.4290 ha         1 JNJ       0.143000
     50 H171        -5.0210     2.0340    -1.3950 h1         1 JNJ       0.056700
     51 H172        -6.2110     2.9500    -0.4840 h1         1 JNJ       0.056700
     52 H181        -2.7130     3.1470     1.0090 h1         1 JNJ       0.034200
     53 H182        -3.0400     2.8580    -0.6980 h1         1 JNJ       0.034200
     54 H183        -3.8600     4.1830     0.1460 h1         1 JNJ       0.034200
     55 H25          2.6500     2.8840    -2.9540 ha         1 JNJ       0.165000
     56 HN81         5.3350     3.2030     2.5040 hn         1 JNJ       0.416800
     57 HN82         5.8550     4.7670     2.1940 hn         1 JNJ       0.416800
     58 F2          -1.6180    -0.6700    -2.1590 f          1 JNJ      -0.133900
     59 N6           5.8930    -3.6260     0.4680 nt         1 JNJ      -0.660000
     60 C17         -5.5310     2.0850    -0.4280 c3         1 JNJ       0.138500
     61 N8           5.6340     3.8630     1.8050 nv         1 JNJ      -0.874800
@<TRIPOS>BOND
     1     1     2 1   
     2     1    15 1   
     3     1    20 2   
     4     2     3 ar  
     5     2     4 ar  
     6     3    22 ar  
     7     3    36 1   
     8     4    21 1   
     9     4    24 ar  
    10     5     6 ar  
    11     5    10 ar  
    12     5    26 1   
    13     6     7 ar  
    14     6    39 1   
    15     7     8 ar  
    16     7    58 1   
    17     8     9 ar  
    18     8    23 1   
    19     9    10 ar  
    20     9    40 1   
    21    10    41 1   
    22    11    26 1   
    23    11    27 2   
    24    11    60 1   
    25    12    13 2   
    26    12    27 1   
    27    12    42 1   
    28    13    26 1   
    29    13    43 1   
    30    14    28 1   
    31    14    44 1   
    32    14    45 1   
    33    14    46 1   
    34    15    30 2   
    35    15    59 1   
    36    16    17 ar  
    37    16    19 1   
    38    16    33 ar  
    39    17    31 ar  
    40    17    47 1   
    41    18    31 ar  
    42    18    32 ar  
    43    18    48 1   
    44    19    35 2   
    45    19    61 1   
    46    20    21 1   
    47    21    31 1   
    48    22    23 ar  
    49    22    49 1   
    50    23    24 ar  
    51    24    25 1   
    52    28    29 1   
    53    28    60 1   
    54    29    52 1   
    55    29    53 1   
    56    29    54 1   
    57    32    33 ar  
    58    32    55 1   
    59    33    34 1   
    60    34    35 1   
    61    37    59 1   
    62    38    59 1   
    63    50    60 1   
    64    51    60 1   
    65    56    61 1   
    66    57    61 1   
@<TRIPOS>SUBSTRUCTURE
     1 JNJ         1 TEMP              0 ****  ****    0 ROOT
