@<TRIPOS>MOLECULE
JNK
   56    59     1     0     0
SMALL
No Charge or Current Charge


@<TRIPOS>ATOM
      1 C1           1.8070    -0.3380     0.6270 cp         1 JNK       0.037000
      2 C2           0.5260    -1.1100     0.5270 cp         1 JNK       0.024000
      3 C3           3.0390    -0.8630     0.1750 ca         1 JNK      -0.215000
      4 C4           1.8590     0.9610     1.1810 ca         1 JNK      -0.204000
      5 C5          -0.7260    -0.4690     0.3840 ca         1 JNK      -0.205000
      6 C6           0.4960    -2.5240     0.5640 ca         1 JNK      -0.189000
      7 C7           4.2070    -0.0990     0.2820 ca         1 JNK       0.623900
      8 C8           3.0810     1.6440     1.2600 ca         1 JNK       0.383900
      9 C9          -1.9000    -1.2320     0.3080 ca         1 JNK       0.490900
     10 C10         -0.7250    -3.2080     0.4540 ca         1 JNK       0.372900
     11 N11          5.4180    -0.6130    -0.1310 nu         1 JNK      -0.940900
     12 N12          4.2450     1.1220     0.8210 nb         1 JNK      -0.732000
     13 N13         -3.1390    -0.6130     0.0940 ns         1 JNK      -0.331900
     14 N14         -1.9110    -2.5780     0.3160 nb         1 JNK      -0.671000
     15 C15          6.6880    -0.0740    -0.3630 ca         1 JNK       0.303000
     16 C16         -4.4020    -0.9720     0.5160 c          1 JNK       0.609100
     17 C17          7.8080    -0.9200    -0.2530 ca         1 JNK      -0.133500
     18 C18          6.8800     1.2690    -0.7490 ca         1 JNK      -0.133500
     19 C19         -5.5430    -0.0550     0.0210 c6         1 JNK      -0.146700
     20 O20         -4.6310    -1.9270     1.2470 o          1 JNK      -0.526100
     21 C21          9.1050    -0.4280    -0.4970 ca         1 JNK      -0.120000
     22 C22          8.1760     1.7640    -0.9950 ca         1 JNK      -0.120000
     23 C23         -6.5370    -0.7720    -0.9300 c6         1 JNK      -0.065900
     24 C24         -6.2440     0.7270     1.1640 c6         1 JNK      -0.065900
     25 C25          9.2840     0.9140    -0.8640 ca         1 JNK       0.136000
     26 C26         -7.6080     0.2140    -1.4600 c6         1 JNK      -0.091400
     27 C27         -7.3270     1.6870     0.6080 c6         1 JNK      -0.091400
     28 C28         -8.3440     0.9410    -0.3050 c6         1 JNK       0.170300
     29 O29         -9.3220     1.8420    -0.8670 os         1 JNK      -0.456000
     30 C30        -10.2390     2.4830     0.0400 c3         1 JNK       0.147900
     31 F31         10.5270     1.3880    -1.1010 f          1 JNK      -0.181000
     32 H3           3.0860    -1.8490    -0.2750 ha         1 JNK       0.125000
     33 H4           0.9640     1.4400     1.5670 ha         1 JNK       0.128000
     34 H5          -0.7920     0.6120     0.3220 ha         1 JNK       0.123000
     35 H6           1.4090    -3.0990     0.6840 ha         1 JNK       0.128000
     36 H8           3.1310     2.6420     1.6950 h4         1 JNK       0.021100
     37 H10         -0.7540    -4.2970     0.4760 h4         1 JNK       0.026100
     38 H11          5.3820    -1.6250    -0.2240 hn         1 JNK       0.495000
     39 H13         -3.0900     0.2360    -0.4510 hn         1 JNK       0.151000
     40 H17          7.6780    -1.9600     0.0320 ha         1 JNK       0.133000
     41 H18          6.0300     1.9310    -0.8750 ha         1 JNK       0.133000
     42 H19         -5.0490     0.7090    -0.5970 hc         1 JNK       0.051700
     43 H21          9.9670    -1.0840    -0.4030 ha         1 JNK       0.131000
     44 H22          8.3190     2.8010    -1.2910 ha         1 JNK       0.131000
     45 H231        -7.0290    -1.5990    -0.3990 hc         1 JNK       0.054950
     46 H232        -5.9960    -1.2220    -1.7750 hc         1 JNK       0.054950
     47 H241        -6.7090     0.0180     1.8650 hc         1 JNK       0.054950
     48 H242        -5.5030     1.2970     1.7420 hc         1 JNK       0.054950
     49 H261        -8.3360    -0.3310    -2.0760 hc         1 JNK       0.051700
     50 H262        -7.1340     0.9540    -2.1190 hc         1 JNK       0.051700
     51 H271        -6.8470     2.4970     0.0410 hc         1 JNK       0.051700
     52 H272        -7.8430     2.1590     1.4540 hc         1 JNK       0.051700
     53 H28         -8.8750     0.1880     0.2960 h1         1 JNK       0.035700
     54 H301       -10.7600     1.7400     0.6580 h1         1 JNK       0.028033
     55 H302        -9.7170     3.1860     0.7020 h1         1 JNK       0.028033
     56 H303       -10.9930     3.0500    -0.5200 h1         1 JNK       0.028033
@<TRIPOS>BOND
     1     1     2 1   
     2     1     3 ar  
     3     1     4 ar  
     4     2     5 ar  
     5     2     6 ar  
     6     3     7 ar  
     7     3    32 1   
     8     4     8 ar  
     9     4    33 1   
    10     5     9 ar  
    11     5    34 1   
    12     6    10 ar  
    13     6    35 1   
    14     7    11 1   
    15     7    12 ar  
    16     8    12 ar  
    17     8    36 1   
    18     9    13 1   
    19     9    14 ar  
    20    10    14 ar  
    21    10    37 1   
    22    11    15 1   
    23    11    38 1   
    24    13    16 1   
    25    13    39 1   
    26    15    17 ar  
    27    15    18 ar  
    28    16    19 1   
    29    16    20 2   
    30    17    21 ar  
    31    17    40 1   
    32    18    22 ar  
    33    18    41 1   
    34    19    23 1   
    35    19    24 1   
    36    19    42 1   
    37    21    25 ar  
    38    21    43 1   
    39    22    25 ar  
    40    22    44 1   
    41    23    26 1   
    42    23    45 1   
    43    23    46 1   
    44    24    27 1   
    45    24    47 1   
    46    24    48 1   
    47    25    31 1   
    48    26    28 1   
    49    26    49 1   
    50    26    50 1   
    51    27    28 1   
    52    27    51 1   
    53    27    52 1   
    54    28    29 1   
    55    28    53 1   
    56    29    30 1   
    57    30    54 1   
    58    30    55 1   
    59    30    56 1   
@<TRIPOS>SUBSTRUCTURE
     1 JNK         1 TEMP              0 ****  ****    0 ROOT
