@<TRIPOS>MOLECULE
JNK
   56    59     1     0     0
SMALL
abcg2


@<TRIPOS>ATOM
      1 C1           1.7270    -0.1650     0.5260 cp         1 JNK       0.037000
      2 C2           0.4880    -0.9620     0.6170 cp         1 JNK       0.024000
      3 C3           2.9260    -0.7580     0.1890 ca         1 JNK      -0.215000
      4 C4           1.7170     1.2130     0.7820 ca         1 JNK      -0.204000
      5 C5          -0.7370    -0.4040     0.2910 ca         1 JNK      -0.205000
      6 C6           0.5050    -2.2930     1.0410 ca         1 JNK      -0.189000
      7 C7           4.0880     0.0340     0.1160 ca         1 JNK       0.623900
      8 C8           2.9070     1.8980     0.6800 ca         1 JNK       0.383900
      9 C9          -1.8920    -1.1860     0.3990 ca         1 JNK       0.490900
     10 C10         -0.6930    -2.9730     1.1090 ca         1 JNK       0.372900
     11 N11          5.2610    -0.5880    -0.2150 nu         1 JNK      -0.940900
     12 N12          4.0700     1.3370     0.3550 nb         1 JNK      -0.732000
     13 N13         -3.0960    -0.5840     0.0550 ns         1 JNK      -0.331900
     14 N14         -1.8730    -2.4450     0.7970 nb         1 JNK      -0.671000
     15 C15          6.5540    -0.0980    -0.3540 ca         1 JNK       0.303000
     16 C16         -4.3750    -1.0630     0.1480 c          1 JNK       0.609100
     17 C17          7.5470    -1.0370    -0.6640 ca         1 JNK      -0.133500
     18 C18          6.9290     1.2410    -0.2130 ca         1 JNK      -0.133500
     19 C19         -5.4280    -0.0520    -0.2660 c6         1 JNK      -0.146700
     20 O20         -4.6630    -2.1710     0.5480 o          1 JNK      -0.526100
     21 C21          8.8690    -0.6620    -0.8250 ca         1 JNK      -0.120000
     22 C22          8.2570     1.6190    -0.3750 ca         1 JNK      -0.120000
     23 C23         -6.5060    -0.6970    -1.1350 c6         1 JNK      -0.065900
     24 C24         -6.0590     0.5720     0.9860 c6         1 JNK      -0.065900
     25 C25          9.2080     0.6690    -0.6770 ca         1 JNK       0.136000
     26 C26         -7.5900     0.3110    -1.5010 c6         1 JNK      -0.091400
     27 C27         -7.1430     1.5770     0.6120 c6         1 JNK      -0.091400
     28 C28         -8.2160     0.9290    -0.2600 c6         1 JNK       0.170300
     29 O29         -9.1990     1.8480    -0.6870 os         1 JNK      -0.456000
     30 C30        -10.0990     2.2480     0.3150 c3         1 JNK       0.147900
     31 F31         10.4930     1.0420    -0.8300 f          1 JNK      -0.181000
     32 H3           2.9830    -1.8160    -0.0340 ha         1 JNK       0.125000
     33 H4           0.8150     1.7320     1.0740 ha         1 JNK       0.128000
     34 H5          -0.8080     0.6190    -0.0580 ha         1 JNK       0.123000
     35 H6           1.4230    -2.7840     1.3310 ha         1 JNK       0.128000
     36 H8           2.9360     2.9650     0.8750 h4         1 JNK       0.021100
     37 H10         -0.7090    -4.0060     1.4390 h4         1 JNK       0.026100
     38 H11          5.1780    -1.5820    -0.3590 hn         1 JNK       0.495000
     39 H13         -3.0100     0.3620    -0.2840 hn         1 JNK       0.151000
     40 H17          7.2840    -2.0810    -0.7800 ha         1 JNK       0.133000
     41 H18          6.1920     1.9900     0.0230 ha         1 JNK       0.133000
     42 H19         -4.9580     0.7520    -0.8440 hc         1 JNK       0.051700
     43 H21          9.6210    -1.4030    -1.0630 ha         1 JNK       0.131000
     44 H22          8.5360     2.6580    -0.2640 ha         1 JNK       0.131000
     45 H231        -6.9490    -1.5400    -0.5980 hc         1 JNK       0.054950
     46 H232        -6.0620    -1.1040    -2.0470 hc         1 JNK       0.054950
     47 H241        -6.4890    -0.2210     1.6050 hc         1 JNK       0.054950
     48 H242        -5.2950     1.0640     1.5930 hc         1 JNK       0.054950
     49 H261        -8.3600    -0.1800    -2.1000 hc         1 JNK       0.051700
     50 H262        -7.1590     1.1050    -2.1210 hc         1 JNK       0.051700
     51 H271        -6.6990     2.4180     0.0670 hc         1 JNK       0.051700
     52 H272        -7.5790     1.9850     1.5270 hc         1 JNK       0.051700
     53 H28         -8.6950     0.1260     0.3250 h1         1 JNK       0.035700
     54 H301       -10.5780     1.3890     0.8010 h1         1 JNK       0.028033
     55 H302        -9.6320     2.8580     1.0960 h1         1 JNK       0.028033
     56 H303       -10.8760     2.8490    -0.1580 h1         1 JNK       0.028033
@<TRIPOS>BOND
     1     1     2 1   
     2     1     3 ar  
     3     1     4 ar  
     4     2     5 ar  
     5     2     6 ar  
     6     3     7 ar  
     7     3    32 1   
     8     4     8 ar  
     9     4    33 1   
    10     5     9 ar  
    11     5    34 1   
    12     6    10 ar  
    13     6    35 1   
    14     7    11 1   
    15     7    12 ar  
    16     8    12 ar  
    17     8    36 1   
    18     9    13 1   
    19     9    14 ar  
    20    10    14 ar  
    21    10    37 1   
    22    11    15 1   
    23    11    38 1   
    24    13    16 1   
    25    13    39 1   
    26    15    17 ar  
    27    15    18 ar  
    28    16    19 1   
    29    16    20 2   
    30    17    21 ar  
    31    17    40 1   
    32    18    22 ar  
    33    18    41 1   
    34    19    23 1   
    35    19    24 1   
    36    19    42 1   
    37    21    25 ar  
    38    21    43 1   
    39    22    25 ar  
    40    22    44 1   
    41    23    26 1   
    42    23    45 1   
    43    23    46 1   
    44    24    27 1   
    45    24    47 1   
    46    24    48 1   
    47    25    31 1   
    48    26    28 1   
    49    26    49 1   
    50    26    50 1   
    51    27    28 1   
    52    27    51 1   
    53    27    52 1   
    54    28    29 1   
    55    28    53 1   
    56    29    30 1   
    57    30    54 1   
    58    30    55 1   
    59    30    56 1   
@<TRIPOS>SUBSTRUCTURE
     1 JNK         1 TEMP              0 ****  ****    0 ROOT
