@<TRIPOS>MOLECULE
JNL
   42    44     1     0     0
SMALL
abcg2


@<TRIPOS>ATOM
      1 N1          27.9080   -44.2650   -15.8920 nb         1 JNL      -0.645000
      2 N2          30.3220   -44.7820   -14.5970 nb         1 JNL      -0.631000
      3 C3          25.6860   -48.9790   -13.0160 c          1 JNL       0.662100
      4 C4          27.9850   -45.2220   -14.9360 ca         1 JNL       0.252000
      5 C5          29.2080   -45.4860   -14.2880 ca         1 JNL       0.211000
      6 C6          28.9890   -43.6000   -16.1860 ca         1 JNL       0.328300
      7 C7          30.2340   -43.8610   -15.5140 ca         1 JNL       0.315300
      8 C8          26.8410   -45.9690   -14.6020 ca         1 JNL      -0.138000
      9 N10         24.4380   -49.3890   -12.6280 ns         1 JNL      -0.168000
     10 C11         26.9060   -46.9480   -13.6370 ca         1 JNL      -0.002000
     11 O12         26.6440   -49.7190   -13.1180 o          1 JNL      -0.592100
     12 C13         24.0900   -50.7060   -12.2990 ca         1 JNL       0.016000
     13 C14         23.2280   -50.9000   -11.2280 ca         1 JNL      -0.198000
     14 C15         29.2540   -46.4900   -13.3000 ca         1 JNL      -0.058000
     15 C16         28.1330   -47.2000   -12.9750 ca         1 JNL      -0.102000
     16 C17         22.8010   -52.1810   -10.8800 ca         1 JNL       0.163100
     17 O18         21.9630   -52.2540    -9.8300 os         1 JNL      -0.343100
     18 C19         24.1180   -53.0690   -12.6720 ca         1 JNL      -0.054000
     19 C20         28.9180   -42.5490   -17.2460 c3         1 JNL      -0.147400
     20 C21         31.4560   -43.0730   -15.8590 c3         1 JNL      -0.144400
     21 C22         24.5390   -51.8030   -13.0370 ca         1 JNL      -0.148000
     22 C23         23.2550   -53.2810   -11.6030 ca         1 JNL      -0.214000
     23 C24         21.5390   -53.5280    -9.3910 c3         1 JNL       0.149900
     24 H25         25.9120   -45.7580   -15.1190 ha         1 JNL       0.130000
     25 H26         24.8740   -47.1460   -13.4530 hn         1 JNL       0.153000
     26 H27         23.7850   -48.6790   -12.3310 hn         1 JNL       0.151000
     27 H28         22.8810   -50.0520   -10.6480 ha         1 JNL       0.124000
     28 H29         30.1910   -46.6780   -12.7910 ha         1 JNL       0.136000
     29 H30         28.1830   -47.9400   -12.1900 ha         1 JNL       0.140000
     30 H31         24.4610   -53.9220   -13.2430 ha         1 JNL       0.115000
     31 H33         27.9090   -42.4820   -17.6460 hc         1 JNL       0.055033
     32 H34         29.2020   -41.5710   -16.8530 hc         1 JNL       0.055033
     33 H32         29.6040   -42.7710   -18.0660 hc         1 JNL       0.055033
     34 H36         32.3000   -43.4040   -15.2600 hc         1 JNL       0.054033
     35 H35         31.7150   -43.1820   -16.9140 hc         1 JNL       0.054033
     36 H37         31.3020   -42.0060   -15.6820 hc         1 JNL       0.054033
     37 H38         25.1880   -51.6740   -13.8890 ha         1 JNL       0.138000
     38 H39         22.9500   -54.2900   -11.3600 ha         1 JNL       0.119000
     39 H40         20.8960   -53.3610    -8.5310 h1         1 JNL       0.041367
     40 H42         20.9670   -54.0570   -10.1580 h1         1 JNL       0.041367
     41 H41         22.3800   -54.1560    -9.0850 h1         1 JNL       0.041367
     42 N9          25.7420   -47.6310   -13.2780 ns         1 JNL      -0.173000
@<TRIPOS>BOND
     1     1     4 ar  
     2     1     6 ar  
     3     2     5 ar  
     4     2     7 ar  
     5     3     9 1   
     6     3    11 2   
     7     3    42 1   
     8     4     5 ar  
     9     4     8 ar  
    10     5    14 ar  
    11     6     7 ar  
    12     6    19 1   
    13     7    20 1   
    14     8    10 ar  
    15     8    24 1   
    16     9    12 1   
    17     9    26 1   
    18    10    15 ar  
    19    10    42 1   
    20    12    13 ar  
    21    12    21 ar  
    22    13    16 ar  
    23    13    27 1   
    24    14    15 ar  
    25    14    28 1   
    26    15    29 1   
    27    16    17 1   
    28    16    22 ar  
    29    17    23 1   
    30    18    21 ar  
    31    18    22 ar  
    32    18    30 1   
    33    19    31 1   
    34    19    32 1   
    35    19    33 1   
    36    20    34 1   
    37    20    35 1   
    38    20    36 1   
    39    21    37 1   
    40    22    38 1   
    41    23    39 1   
    42    23    40 1   
    43    23    41 1   
    44    25    42 1   
@<TRIPOS>SUBSTRUCTURE
     1 JNL         1 TEMP              0 ****  ****    0 ROOT
