@<TRIPOS>MOLECULE
JNL
   42    44     1     0     0
SMALL
No Charge or Current Charge


@<TRIPOS>ATOM
      1 N1          27.7680   -43.9690   -15.2860 nb         1 JNL      -0.645000
      2 N2          30.4680   -44.9000   -15.4380 nb         1 JNL      -0.631000
      3 C3          26.2990   -49.4390   -12.8790 c          1 JNL       0.662100
      4 C4          28.1170   -45.2150   -14.8680 ca         1 JNL       0.252000
      5 C5          29.4700   -45.6810   -14.9440 ca         1 JNL       0.211000
      6 C6          28.7670   -43.1910   -15.7790 ca         1 JNL       0.328300
      7 C7          30.1160   -43.6550   -15.8550 ca         1 JNL       0.315300
      8 C8          27.1250   -46.0660   -14.3480 ca         1 JNL      -0.138000
      9 N10         25.0080   -49.7790   -12.5010 ns         1 JNL      -0.168000
     10 C11         27.4270   -47.3650   -13.9000 ca         1 JNL      -0.002000
     11 O12         27.2680   -50.1810   -12.7760 o          1 JNL      -0.592100
     12 C13         24.4530   -50.9600   -11.9370 ca         1 JNL       0.016000
     13 C14         23.0720   -50.9630   -11.6690 ca         1 JNL      -0.198000
     14 C15         29.7650   -46.9800   -14.4950 ca         1 JNL      -0.058000
     15 C16         28.7600   -47.8170   -13.9780 ca         1 JNL      -0.102000
     16 C17         22.4420   -52.0880   -11.1120 ca         1 JNL       0.163100
     17 O18         21.0850   -52.0160   -10.8780 os         1 JNL      -0.343100
     18 C19         24.5840   -53.2450   -11.0770 ca         1 JNL      -0.054000
     19 C20         28.3570   -41.7990   -16.2420 c3         1 JNL      -0.147400
     20 C21         31.2450   -42.7940   -16.4050 c3         1 JNL      -0.144400
     21 C22         25.2070   -52.1150   -11.6350 ca         1 JNL      -0.148000
     22 C23         23.2050   -53.2350   -10.8150 ca         1 JNL      -0.214000
     23 C24         20.3450   -53.1120   -10.3110 c3         1 JNL       0.149900
     24 H25         26.1010   -45.7040   -14.2940 ha         1 JNL       0.130000
     25 H26         25.4620   -47.6730   -13.4060 hn         1 JNL       0.153000
     26 H27         24.3260   -49.0480   -12.6550 hn         1 JNL       0.151000
     27 H28         22.4740   -50.0840   -11.8940 ha         1 JNL       0.124000
     28 H29         30.7880   -47.3430   -14.5480 ha         1 JNL       0.136000
     29 H30         29.0450   -48.8100   -13.6460 ha         1 JNL       0.140000
     30 H31         25.1740   -54.1300   -10.8480 ha         1 JNL       0.115000
     31 H33         27.2840   -41.6220   -16.1070 hc         1 JNL       0.055033
     32 H34         28.8930   -41.0270   -15.6780 hc         1 JNL       0.055033
     33 H32         28.5830   -41.6600   -17.3060 hc         1 JNL       0.055033
     34 H36         32.2080   -43.3180   -16.3840 hc         1 JNL       0.054033
     35 H35         31.0470   -42.5080   -17.4440 hc         1 JNL       0.054033
     36 H37         31.3570   -41.8750   -15.8170 hc         1 JNL       0.054033
     37 H38         26.2740   -52.1620   -11.8230 ha         1 JNL       0.138000
     38 H39         22.7500   -54.1220   -10.3830 ha         1 JNL       0.119000
     39 H40         19.2860   -52.8440   -10.2110 h1         1 JNL       0.041367
     40 H42         20.4120   -54.0000   -10.9520 h1         1 JNL       0.041367
     41 H41         20.7270   -53.3660    -9.3140 h1         1 JNL       0.041367
     42 N9          26.3540   -48.1500   -13.3910 ns         1 JNL      -0.173000
@<TRIPOS>BOND
     1     1     4 ar  
     2     1     6 ar  
     3     2     5 ar  
     4     2     7 ar  
     5     3     9 1   
     6     3    11 2   
     7     3    42 1   
     8     4     5 ar  
     9     4     8 ar  
    10     5    14 ar  
    11     6     7 ar  
    12     6    19 1   
    13     7    20 1   
    14     8    10 ar  
    15     8    24 1   
    16     9    12 1   
    17     9    26 1   
    18    10    15 ar  
    19    10    42 1   
    20    12    13 ar  
    21    12    21 ar  
    22    13    16 ar  
    23    13    27 1   
    24    14    15 ar  
    25    14    28 1   
    26    15    29 1   
    27    16    17 1   
    28    16    22 ar  
    29    17    23 1   
    30    18    21 ar  
    31    18    22 ar  
    32    18    30 1   
    33    19    31 1   
    34    19    32 1   
    35    19    33 1   
    36    20    34 1   
    37    20    35 1   
    38    20    36 1   
    39    21    37 1   
    40    22    38 1   
    41    23    39 1   
    42    23    40 1   
    43    23    41 1   
    44    25    42 1   
@<TRIPOS>SUBSTRUCTURE
     1 JNL         1 TEMP              0 ****  ****    0 ROOT
