@<TRIPOS>MOLECULE
JNM
   28    28     1     0     0
SMALL
abcg2


@<TRIPOS>ATOM
      1 C10          2.0960    -1.1770     0.1380 c          1 JNM       0.618700
      2 C13         -0.2390    -0.4010    -0.2100 ca         1 JNM       0.262100
      3 C01         -4.8510    -0.5030     0.5000 c3         1 JNM      -0.089100
      4 C02         -3.3860    -0.1620     0.7370 c3         1 JNM      -0.073400
      5 C03         -2.6660     0.2240    -0.5580 c3         1 JNM      -0.010100
      6 C04         -1.2220     0.5870    -0.3480 ca         1 JNM      -0.182300
      7 C05         -0.8210     1.9070    -0.2460 ca         1 JNM       0.009000
      8 C06          0.4970     2.2730    -0.0180 ca         1 JNM      -0.283000
      9 C07          1.4700     1.2960     0.1160 ca         1 JNM       0.231100
     10 O08          2.7450     1.6350     0.3410 oh         1 JNM      -0.533100
     11 C09          1.1300    -0.0750     0.0190 ca         1 JNM      -0.337600
     12 O11          1.7020    -2.3450     0.0580 o          1 JNM      -0.590100
     13 C12          3.5650    -0.9590     0.3510 c3         1 JNM      -0.175100
     14 O14         -0.6380    -1.6630    -0.3060 oh         1 JNM      -0.553100
     15 H011        -5.3510    -0.7820     1.4280 hc         1 JNM       0.031033
     16 H012        -5.3910     0.3450     0.0760 hc         1 JNM       0.031033
     17 H013        -4.9540    -1.3390    -0.1950 hc         1 JNM       0.031033
     18 H022        -3.3080     0.6650     1.4470 hc         1 JNM       0.042200
     19 H021        -2.8800    -1.0130     1.1980 hc         1 JNM       0.042200
     20 H031        -2.7570    -0.5940    -1.2770 hc         1 JNM       0.047200
     21 H032        -3.1810     1.0790    -1.0050 hc         1 JNM       0.047200
     22 H051        -1.5650     2.6880    -0.3470 ha         1 JNM       0.115000
     23 H061         0.7650     3.3200     0.0580 ha         1 JNM       0.118000
     24 H081         2.8310     2.5960     0.3740 ho         1 JNM       0.474000
     25 H123         4.0610    -1.9270     0.3800 hc         1 JNM       0.068367
     26 H121         3.9990    -0.3610    -0.4480 hc         1 JNM       0.068367
     27 H122         3.7590    -0.4360     1.2870 hc         1 JNM       0.068367
     28 H141         0.1710    -2.2290    -0.1840 ho         1 JNM       0.525000
@<TRIPOS>BOND
     1     1    11 1   
     2     1    12 2   
     3     1    13 1   
     4     2     6 ar  
     5     2    11 ar  
     6     2    14 1   
     7     3     4 1   
     8     3    15 1   
     9     3    16 1   
    10     3    17 1   
    11     4     5 1   
    12     4    18 1   
    13     4    19 1   
    14     5     6 1   
    15     5    20 1   
    16     5    21 1   
    17     6     7 ar  
    18     7     8 ar  
    19     7    22 1   
    20     8     9 ar  
    21     8    23 1   
    22     9    10 1   
    23     9    11 ar  
    24    10    24 1   
    25    13    25 1   
    26    13    26 1   
    27    13    27 1   
    28    14    28 1   
@<TRIPOS>SUBSTRUCTURE
     1 JNM         1 TEMP              0 ****  ****    0 ROOT
