@<TRIPOS>MOLECULE
JNM
   28    28     1     0     0
SMALL
No Charge or Current Charge


@<TRIPOS>ATOM
      1 C10          2.1810    -1.1880     0.3790 c          1 JNM       0.618700
      2 C13         -0.1920    -0.4560    -0.0850 ca         1 JNM       0.262100
      3 C01         -4.9350    -0.4400     0.3570 c3         1 JNM      -0.089100
      4 C02         -3.4660    -0.0840     0.6560 c3         1 JNM      -0.073400
      5 C03         -2.6300     0.1680    -0.6180 c3         1 JNM      -0.010100
      6 C04         -1.1800     0.5320    -0.2930 ca         1 JNM      -0.182300
      7 C05         -0.8290     1.8870    -0.1870 ca         1 JNM       0.009000
      8 C06          0.4860     2.2470     0.1300 ca         1 JNM      -0.283000
      9 C07          1.4640     1.2660     0.3280 ca         1 JNM       0.231100
     10 O08          2.7080     1.6770     0.6810 oh         1 JNM      -0.533100
     11 C09          1.1450    -0.1020     0.2050 ca         1 JNM      -0.337600
     12 O11          1.8420    -2.2730     0.8420 o          1 JNM      -0.590100
     13 C12          3.6240    -0.9950    -0.0890 c3         1 JNM      -0.175100
     14 O14         -0.5390    -1.7710    -0.1610 oh         1 JNM      -0.553100
     15 H011        -5.4850    -0.6090     1.2910 hc         1 JNM       0.031033
     16 H012        -5.4290     0.3720    -0.1900 hc         1 JNM       0.031033
     17 H013        -4.9970    -1.3530    -0.2470 hc         1 JNM       0.031033
     18 H022        -3.4370     0.8120     1.2890 hc         1 JNM       0.042200
     19 H021        -3.0120    -0.8980     1.2340 hc         1 JNM       0.042200
     20 H031        -2.6730    -0.7200    -1.2610 hc         1 JNM       0.047200
     21 H032        -3.0990     0.9740    -1.1960 hc         1 JNM       0.047200
     22 H051        -1.5790     2.6620    -0.3360 ha         1 JNM       0.115000
     23 H061         0.7350     3.3000     0.2280 ha         1 JNM       0.118000
     24 H081         2.6990     2.6550     0.7300 ho         1 JNM       0.474000
     25 H123         4.1130    -1.9520    -0.3040 hc         1 JNM       0.068367
     26 H121         3.6590    -0.3070    -0.9400 hc         1 JNM       0.068367
     27 H122         4.1790    -0.4840     0.7040 hc         1 JNM       0.068367
     28 H141         0.2260    -2.2720     0.2200 ho         1 JNM       0.525000
@<TRIPOS>BOND
     1     1    11 1   
     2     1    12 2   
     3     1    13 1   
     4     2     6 ar  
     5     2    11 ar  
     6     2    14 1   
     7     3     4 1   
     8     3    15 1   
     9     3    16 1   
    10     3    17 1   
    11     4     5 1   
    12     4    18 1   
    13     4    19 1   
    14     5     6 1   
    15     5    20 1   
    16     5    21 1   
    17     6     7 ar  
    18     7     8 ar  
    19     7    22 1   
    20     8     9 ar  
    21     8    23 1   
    22     9    10 1   
    23     9    11 ar  
    24    10    24 1   
    25    13    25 1   
    26    13    26 1   
    27    13    27 1   
    28    14    28 1   
@<TRIPOS>SUBSTRUCTURE
     1 JNM         1 TEMP              0 ****  ****    0 ROOT
