@<TRIPOS>MOLECULE
JNN
   33    34     1     0     0
SMALL
No Charge or Current Charge


@<TRIPOS>ATOM
      1 O1          -7.1700     1.6200     0.7410 o          1 JNN      -0.554100
      2 C1          -6.9050     0.5650     0.1690 c          1 JNN       0.527600
      3 N1          -7.8950    -0.3490    -0.1880 ns         1 JNN      -0.371400
      4 O2          -9.2960     0.0190    -0.1610 oh         1 JNN      -0.417100
      5 C2          -5.5180     0.1300    -0.2010 cc         1 JNN       0.216500
      6 C3          -4.3880     0.9230     0.0870 cc         1 JNN      -0.195000
      7 C4          -3.3300     0.2230    -0.3850 cd         1 JNN       0.171300
      8 C5          -1.8620     0.5440    -0.3790 c3         1 JNN      -0.141700
      9 C6          -1.0760    -0.3400     0.6080 c3         1 JNN       0.108000
     10 N2           0.3500    -0.0040     0.6280 ns         1 JNN      -0.506900
     11 C7           1.2670    -0.4040    -0.3220 c          1 JNN       0.613700
     12 O3           0.9370    -1.1110    -1.2640 o          1 JNN      -0.584100
     13 C8           2.6930     0.0730    -0.1370 ca         1 JNN      -0.145600
     14 C9           3.0850     0.8950     0.9490 ca         1 JNN      -0.082000
     15 C10          4.4200     1.3150     1.0810 ca         1 JNN      -0.105000
     16 C11          5.3850     0.9260     0.1390 ca         1 JNN       0.134000
     17 Cl1          7.0500     1.4720     0.3390 cl         1 JNN      -0.160000
     18 C12          5.0110     0.1090    -0.9450 ca         1 JNN       0.107000
     19 Cl2          6.1950    -0.4010    -2.1500 cl         1 JNN      -0.160000
     20 C13          3.6760    -0.3120    -1.0790 ca         1 JNN      -0.044000
     21 O4          -3.7660    -0.9490    -0.9440 os         1 JNN      -0.048700
     22 N3          -5.2020    -1.0060    -0.8200 nd         1 JNN      -0.356300
     23 H1          -7.6420    -1.1390    -0.7850 hn         1 JNN       0.359500
     24 H2          -9.7210    -0.7210     0.3330 ho         1 JNN       0.448000
     25 H3          -4.3860     1.8870     0.5820 ha         1 JNN       0.171000
     26 H4          -1.4550     0.4130    -1.3880 hc         1 JNN       0.077200
     27 H5          -1.7140     1.5980    -0.1140 hc         1 JNN       0.077200
     28 H6          -1.4820    -0.2070     1.6210 h1         1 JNN       0.066200
     29 H7          -1.1940    -1.3980     0.3360 h1         1 JNN       0.066200
     30 H8           0.6970     0.5740     1.3830 hn         1 JNN       0.320500
     31 H9           2.3690     1.2200     1.7010 ha         1 JNN       0.119000
     32 H10          4.7100     1.9460     1.9190 ha         1 JNN       0.136000
     33 H11          3.4100    -0.9420    -1.9250 ha         1 JNN       0.155000
@<TRIPOS>BOND
     1     1     2 2   
     2     2     3 1   
     3     2     5 1   
     4     3     4 1   
     5     3    23 1   
     6     4    24 1   
     7     5     6 1   
     8     5    22 2   
     9     6     7 2   
    10     6    25 1   
    11     7     8 1   
    12     7    21 1   
    13     8     9 1   
    14     8    26 1   
    15     8    27 1   
    16     9    10 1   
    17     9    28 1   
    18     9    29 1   
    19    10    11 1   
    20    10    30 1   
    21    11    12 2   
    22    11    13 1   
    23    13    14 ar  
    24    13    20 ar  
    25    14    15 ar  
    26    14    31 1   
    27    15    16 ar  
    28    15    32 1   
    29    16    17 1   
    30    16    18 ar  
    31    18    19 1   
    32    18    20 ar  
    33    20    33 1   
    34    21    22 1   
@<TRIPOS>SUBSTRUCTURE
     1 JNN         1 TEMP              0 ****  ****    0 ROOT
