@<TRIPOS>MOLECULE
JNN
   33    34     1     0     0
SMALL
bcc


@<TRIPOS>ATOM
      1 O1          -7.2400     1.1850     1.0780 o          1 JNN      -0.554100
      2 C1          -6.8890     0.3760     0.2410 c          1 JNN       0.594600
      3 N1          -7.6980    -0.4920    -0.3840 ns         1 JNN      -0.438400
      4 O2          -9.0440    -0.3770    -0.2370 oh         1 JNN      -0.378100
      5 C2          -5.4560     0.2580    -0.1480 cc         1 JNN       0.281800
      6 C3          -4.3800     0.9800     0.4140 cc         1 JNN      -0.343600
      7 C4          -3.3050     0.5240    -0.2730 cd         1 JNN       0.281000
      8 C5          -1.8530     0.8090    -0.1910 c3         1 JNN      -0.141700
      9 C6          -1.0800    -0.3410     0.4720 c3         1 JNN       0.108000
     10 N2           0.3310    -0.0560     0.5650 ns         1 JNN      -0.573900
     11 C7           1.1880    -0.3070    -0.4370 c          1 JNN       0.680700
     12 O3           0.8570    -0.8470    -1.4820 o          1 JNN      -0.584100
     13 C8           2.6080     0.1020    -0.1990 ca         1 JNN      -0.145600
     14 C9           2.9590     1.1960     0.5860 ca         1 JNN      -0.100000
     15 C10          4.2880     1.5480     0.7410 ca         1 JNN      -0.123000
     16 C11          5.2810     0.8060     0.1210 ca         1 JNN       0.042400
     17 CL1          6.9280     1.2510     0.3290 cl         1 JNN      -0.068400
     18 C12          4.9350    -0.2870    -0.6680 ca         1 JNN       0.015400
     19 CL2          6.1520    -1.2220    -1.4480 cl         1 JNN      -0.068400
     20 C13          3.6050    -0.6280    -0.8370 ca         1 JNN      -0.062000
     21 O4          -3.7150    -0.3910    -1.1640 os         1 JNN      -0.093100
     22 N3          -5.0520    -0.5510    -1.0840 nd         1 JNN      -0.356300
     23 H1          -7.3920    -1.0520    -1.1680 hn         1 JNN       0.359500
     24 H2          -9.2990    -1.0360     0.4230 ho         1 JNN       0.409000
     25 H3          -4.4020     1.7140     1.2000 ha         1 JNN       0.189000
     26 H4          -1.4530     0.9960    -1.1900 hc         1 JNN       0.077200
     27 H5          -1.7200     1.7220     0.3900 hc         1 JNN       0.077200
     28 H6          -1.4540    -0.5030     1.4820 h1         1 JNN       0.066200
     29 H7          -1.2270    -1.2670    -0.0830 h1         1 JNN       0.066200
     30 H8           0.6720     0.3210     1.4330 hn         1 JNN       0.320500
     31 H9           2.2050     1.8070     1.0650 ha         1 JNN       0.137000
     32 H10          4.5550     2.4080     1.3390 ha         1 JNN       0.154000
     33 H11          3.3470    -1.4740    -1.4590 ha         1 JNN       0.173000
@<TRIPOS>BOND
     1     1     2 2   
     2     2     3 1   
     3     2     5 1   
     4     3     4 1   
     5     3    23 1   
     6     4    24 1   
     7     5     6 1   
     8     5    22 2   
     9     6     7 2   
    10     6    25 1   
    11     7     8 1   
    12     7    21 1   
    13     8     9 1   
    14     8    26 1   
    15     8    27 1   
    16     9    10 1   
    17     9    28 1   
    18     9    29 1   
    19    10    11 1   
    20    10    30 1   
    21    11    12 2   
    22    11    13 1   
    23    13    14 ar  
    24    13    20 ar  
    25    14    15 ar  
    26    14    31 1   
    27    15    16 ar  
    28    15    32 1   
    29    16    17 1   
    30    16    18 ar  
    31    18    19 1   
    32    18    20 ar  
    33    20    33 1   
    34    21    22 1   
@<TRIPOS>SUBSTRUCTURE
     1 JNN         1 TEMP              0 ****  ****    0 ROOT
