@<TRIPOS>MOLECULE
JNO
   50    53     1     0     0
SMALL
bcc


@<TRIPOS>ATOM
      1 C01         -8.5680     1.8310    -1.4210 c3         1 JNO       0.097300
      2 N02         -7.7920     1.0550    -0.4830 ns         1 JNO      -0.584900
      3 C03         -6.7450     0.3070    -0.8560 c          1 JNO       0.658100
      4 O04         -6.3460     0.2590    -2.0110 o          1 JNO      -0.577100
      5 C05         -6.1270    -0.5210     0.2610 c3         1 JNO       0.090800
      6 N06         -4.7160    -0.7250     0.0720 n3         1 JNO      -0.697600
      7 C07         -4.2200    -1.8070     0.9030 c6         1 JNO       0.171300
      8 C08         -2.7590    -2.1040     0.6080 c6         1 JNO      -0.093900
      9 C09         -1.9060    -0.8580     0.8010 c6         1 JNO       0.246500
     10 C10         -2.4860     0.2870    -0.0280 c6         1 JNO      -0.093900
     11 C11         -3.9570     0.4930     0.2940 c6         1 JNO       0.171300
     12 N12         -0.5320    -1.1560     0.4610 nu         1 JNO      -0.860900
     13 C13          0.5260    -0.4020     0.8120 ca         1 JNO       0.919900
     14 N14          1.7000    -0.7400     0.2720 nb         1 JNO      -0.783000
     15 C15          2.7680    -0.0300     0.6200 ca         1 JNO       0.602100
     16 C16          2.6700     1.0280     1.5260 ca         1 JNO      -0.449600
     17 C17          1.4030     1.2930     2.0130 ca         1 JNO       0.483200
     18 N18          0.3250     0.6090     1.6690 nb         1 JNO      -0.773000
     19 C19          4.0190    -0.4840     0.0370 cc         1 JNO      -0.283900
     20 N20          5.1520     0.2670    -0.2050 na         1 JNO       0.049700
     21 C21          5.3880     1.6090    -0.1190 cc         1 JNO      -0.075300
     22 C22          6.6070     2.0970    -0.4630 cd         1 JNO      -0.163000
     23 C23          7.6250     1.2270    -0.9220 cd         1 JNO      -0.118000
     24 C24          7.3770    -0.1080    -1.0450 cc         1 JNO      -0.093000
     25 C25          6.1090    -0.6070    -0.6930 cc         1 JNO      -0.017300
     26 N26          5.6370    -1.8430    -0.7640 nd         1 JNO      -0.297600
     27 C27          4.3670    -1.7660    -0.3340 cd         1 JNO       0.082600
     28 H01         -7.9670     2.6080    -1.8950 h1         1 JNO       0.039367
     29 H01A        -8.9960     1.2050    -2.2040 h1         1 JNO       0.039367
     30 H01B        -9.3810     2.3090    -0.8820 h1         1 JNO       0.039367
     31 HN02        -8.0590     1.0740     0.4870 hn         1 JNO       0.311500
     32 H05         -6.3670    -0.0800     1.2440 h1         1 JNO       0.043200
     33 H05A        -6.6300    -1.4940     0.2380 h1         1 JNO       0.043200
     34 H07         -4.3350    -1.5790     1.9780 h1         1 JNO       0.034200
     35 H07A        -4.8180    -2.7000     0.7080 h1         1 JNO       0.034200
     36 H08         -2.4120    -2.9100     1.2580 hc         1 JNO       0.059200
     37 H08A        -2.6670    -2.4540    -0.4260 hc         1 JNO       0.059200
     38 H09         -1.9390    -0.5740     1.8570 h1         1 JNO       0.072700
     39 H10         -1.9360     1.2100     0.1680 hc         1 JNO       0.059200
     40 H10A        -2.3730     0.0540    -1.0910 hc         1 JNO       0.059200
     41 H11         -4.3530     1.2900    -0.3380 h1         1 JNO       0.034200
     42 H11A        -4.0600     0.8400     1.3380 h1         1 JNO       0.034200
     43 HN12        -0.3640    -1.8330    -0.2670 hn         1 JNO       0.447800
     44 H16          3.5200     1.5900     1.8810 ha         1 JNO       0.149000
     45 H17          1.2550     2.1010     2.7220 h4         1 JNO       0.018100
     46 H21          4.5760     2.2400     0.2040 h4         1 JNO       0.168000
     47 H22          6.7800     3.1610    -0.3890 ha         1 JNO       0.149000
     48 H23          8.5920     1.6290    -1.1910 ha         1 JNO       0.144000
     49 H24          8.1220    -0.8000    -1.4120 ha         1 JNO       0.163000
     50 H27          3.7320    -2.6360    -0.2690 h4         1 JNO       0.189000
@<TRIPOS>BOND
     1     1     2 1   
     2     1    28 1   
     3     1    29 1   
     4     1    30 1   
     5     2     3 1   
     6     2    31 1   
     7     3     4 2   
     8     3     5 1   
     9     5     6 1   
    10     5    32 1   
    11     5    33 1   
    12     6     7 1   
    13     6    11 1   
    14     7     8 1   
    15     7    34 1   
    16     7    35 1   
    17     8     9 1   
    18     8    36 1   
    19     8    37 1   
    20     9    10 1   
    21     9    12 1   
    22     9    38 1   
    23    10    11 1   
    24    10    39 1   
    25    10    40 1   
    26    11    41 1   
    27    11    42 1   
    28    12    13 1   
    29    12    43 1   
    30    13    14 ar  
    31    13    18 ar  
    32    14    15 ar  
    33    15    16 ar  
    34    15    19 1   
    35    16    17 ar  
    36    16    44 1   
    37    17    18 ar  
    38    17    45 1   
    39    19    20 1   
    40    19    27 2   
    41    20    21 1   
    42    20    25 1   
    43    21    22 2   
    44    21    46 1   
    45    22    23 1   
    46    22    47 1   
    47    23    24 2   
    48    23    48 1   
    49    24    25 1   
    50    24    49 1   
    51    25    26 2   
    52    26    27 1   
    53    27    50 1   
@<TRIPOS>SUBSTRUCTURE
     1 JNO         1 TEMP              0 ****  ****    0 ROOT
