@<TRIPOS>MOLECULE
JNO
   50    53     1     0     0
SMALL
No Charge or Current Charge


@<TRIPOS>ATOM
      1 C01         -7.8580     2.4590    -1.2770 c3         1 JNO       0.097300
      2 N02         -7.2260     1.3910    -0.5010 ns         1 JNO      -0.517900
      3 C03         -6.9680     0.1230    -0.9850 c          1 JNO       0.591100
      4 O04         -7.2670    -0.2000    -2.1290 o          1 JNO      -0.577100
      5 C05         -6.2780    -0.8460     0.0210 c3         1 JNO       0.090800
      6 N06         -4.7900    -1.0060    -0.0720 n3         1 JNO      -0.697600
      7 C07         -4.2840    -2.0770     0.8300 c6         1 JNO       0.171300
      8 C08         -2.7730    -2.3220     0.6230 c6         1 JNO      -0.093900
      9 C09         -1.9810    -1.0160     0.8360 c6         1 JNO       0.246500
     10 C10         -2.5320     0.0850    -0.0970 c6         1 JNO      -0.093900
     11 C11         -4.0490     0.2720     0.1210 c6         1 JNO       0.171300
     12 N12         -0.5510    -1.2550     0.5630 nu         1 JNO      -0.916100
     13 C13          0.5080    -0.4590     0.9810 ca         1 JNO       0.393900
     14 N14          1.7070    -0.8070     0.4870 nb         1 JNO      -0.257000
     15 C15          2.7630    -0.0560     0.8600 ca         1 JNO       0.273800
     16 C16          2.5980     1.0210     1.7480 ca         1 JNO      -0.301000
     17 C17          1.3030     1.3000     2.2090 ca         1 JNO       0.154900
     18 N18          0.2480     0.5600     1.8230 nb         1 JNO      -0.247000
     19 C19          4.0810    -0.4240     0.3470 cc         1 JNO      -0.283900
     20 N20          5.1300     0.3300    -0.0980 na         1 JNO       0.151100
     21 C21          5.0990     1.7220    -0.2450 cc         1 JNO      -0.108000
     22 C22          6.2700     2.2700    -0.7730 cd         1 JNO      -0.145000
     23 C23          7.3860     1.4680    -1.2220 cd         1 JNO      -0.100000
     24 C24          7.2870     0.0970    -1.1660 cc         1 JNO      -0.075000
     25 C25          6.1050    -0.4710    -0.6180 cc         1 JNO      -0.068000
     26 N26          5.7360    -1.7380    -0.5130 nd         1 JNO      -0.297600
     27 C27          4.4600    -1.7200     0.0520 cd         1 JNO       0.032600
     28 H01         -7.2480     2.6850    -2.1610 h1         1 JNO       0.039367
     29 H01A        -8.8600     2.1420    -1.5960 h1         1 JNO       0.039367
     30 H01B        -7.9440     3.3610    -0.6570 h1         1 JNO       0.039367
     31 HN02        -6.9480     1.5830     0.4550 hn         1 JNO       0.311500
     32 H05         -6.5510    -0.5150     1.0320 h1         1 JNO       0.043200
     33 H05A        -6.7590    -1.8230    -0.1240 h1         1 JNO       0.043200
     34 H07         -4.4650    -1.8060     1.8810 h1         1 JNO       0.034200
     35 H07A        -4.8210    -3.0180     0.6410 h1         1 JNO       0.034200
     36 H08         -2.4260    -3.0930     1.3240 hc         1 JNO       0.059200
     37 H08A        -2.6040    -2.7110    -0.3900 hc         1 JNO       0.059200
     38 H09         -2.1240    -0.7040     1.8830 h1         1 JNO       0.072700
     39 H10         -2.0160     1.0360     0.0870 hc         1 JNO       0.059200
     40 H10A        -2.3440    -0.1790    -1.1460 hc         1 JNO       0.059200
     41 H11         -4.4070     1.0360    -0.5850 h1         1 JNO       0.034200
     42 H11A        -4.2220     0.6630     1.1350 h1         1 JNO       0.034200
     43 HN12        -0.2980    -2.0000    -0.0850 hn         1 JNO       0.503000
     44 H16          3.4430     1.6100     2.0900 ha         1 JNO       0.131000
     45 H17          1.1070     2.1190     2.9000 h4         1 JNO       0.018100
     46 H21          4.2240     2.2720     0.0690 h4         1 JNO       0.150000
     47 H22          6.3370     3.3490    -0.8680 ha         1 JNO       0.131000
     48 H23          8.2730     1.9380    -1.6350 ha         1 JNO       0.126000
     49 H24          8.0740    -0.5480    -1.5440 ha         1 JNO       0.145000
     50 H27          3.8960    -2.6370     0.2150 h4         1 JNO       0.239000
@<TRIPOS>BOND
     1     1     2 1   
     2     1    28 1   
     3     1    29 1   
     4     1    30 1   
     5     2     3 1   
     6     2    31 1   
     7     3     4 2   
     8     3     5 1   
     9     5     6 1   
    10     5    32 1   
    11     5    33 1   
    12     6     7 1   
    13     6    11 1   
    14     7     8 1   
    15     7    34 1   
    16     7    35 1   
    17     8     9 1   
    18     8    36 1   
    19     8    37 1   
    20     9    10 1   
    21     9    12 1   
    22     9    38 1   
    23    10    11 1   
    24    10    39 1   
    25    10    40 1   
    26    11    41 1   
    27    11    42 1   
    28    12    13 1   
    29    12    43 1   
    30    13    14 ar  
    31    13    18 ar  
    32    14    15 ar  
    33    15    16 ar  
    34    15    19 1   
    35    16    17 ar  
    36    16    44 1   
    37    17    18 ar  
    38    17    45 1   
    39    19    20 1   
    40    19    27 2   
    41    20    21 1   
    42    20    25 1   
    43    21    22 2   
    44    21    46 1   
    45    22    23 1   
    46    22    47 1   
    47    23    24 2   
    48    23    48 1   
    49    24    25 1   
    50    24    49 1   
    51    25    26 2   
    52    26    27 1   
    53    27    50 1   
@<TRIPOS>SUBSTRUCTURE
     1 JNO         1 TEMP              0 ****  ****    0 ROOT
