@<TRIPOS>MOLECULE
JNP
   26    27     1     0     0
SMALL
abcg2


@<TRIPOS>ATOM
      1 C10         -2.7210     0.3610    -0.0830 ca         1 JNP       0.205100
      2 C13         -0.3240     0.4890    -0.2120 ca         1 JNP       0.235100
      3 C01          2.0930     0.6700     1.6060 c3         1 JNP      -0.103100
      4 C02          2.0310     0.7390     0.0840 c6         1 JNP       0.200000
      5 C03          3.0650     1.7140    -0.4480 c3         1 JNP      -0.103100
      6 C04          2.2150    -0.6380    -0.5470 c6         1 JNP      -0.211400
      7 C05          1.0660    -1.5660    -0.2510 c          1 JNP       0.602700
      8 O06          1.2100    -2.7700    -0.1580 o          1 JNP      -0.529100
      9 C07         -0.2360    -0.9080    -0.1500 ca         1 JNP      -0.309600
     10 C08         -1.4210    -1.6470    -0.0370 ca         1 JNP       0.018000
     11 C09         -2.6510    -1.0390    -0.0030 ca         1 JNP      -0.199000
     12 O11         -3.9380     0.9150    -0.0450 oh         1 JNP      -0.524100
     13 C12         -1.5640     1.1200    -0.1820 ca         1 JNP      -0.273000
     14 O14          0.7520     1.2780    -0.3110 os         1 JNP      -0.348100
     15 H013         1.9250     1.6550     2.0410 hc         1 JNP       0.050867
     16 H011         1.3550    -0.0150     2.0290 hc         1 JNP       0.050867
     17 H012         3.0780     0.3250     1.9210 hc         1 JNP       0.050867
     18 H032         4.0640     1.3850    -0.1630 hc         1 JNP       0.050867
     19 H033         3.0280     1.7780    -1.5360 hc         1 JNP       0.050867
     20 H031         2.9120     2.7120    -0.0360 hc         1 JNP       0.050867
     21 H041         2.2740    -0.5370    -1.6380 hc         1 JNP       0.081700
     22 H042         3.1550    -1.0810    -0.2170 hc         1 JNP       0.081700
     23 H081        -1.3590    -2.7260     0.0160 ha         1 JNP       0.134000
     24 H091        -3.5590    -1.6210     0.0800 ha         1 JNP       0.136000
     25 H111        -3.8810     1.8760    -0.0930 ho         1 JNP       0.471000
     26 H121        -1.6120     2.2030    -0.2250 ha         1 JNP       0.130000
@<TRIPOS>BOND
     1     1    11 ar  
     2     1    12 1   
     3     1    13 ar  
     4     2     9 ar  
     5     2    13 ar  
     6     2    14 1   
     7     3     4 1   
     8     3    15 1   
     9     3    16 1   
    10     3    17 1   
    11     4     5 1   
    12     4     6 1   
    13     4    14 1   
    14     5    18 1   
    15     5    19 1   
    16     5    20 1   
    17     6     7 1   
    18     6    21 1   
    19     6    22 1   
    20     7     8 2   
    21     7     9 1   
    22     9    10 ar  
    23    10    11 ar  
    24    10    23 1   
    25    11    24 1   
    26    12    25 1   
    27    13    26 1   
@<TRIPOS>SUBSTRUCTURE
     1 JNP         1 TEMP              0 ****  ****    0 ROOT
