@<TRIPOS>MOLECULE
JNP
   26    27     1     0     0
SMALL
No Charge or Current Charge


@<TRIPOS>ATOM
      1 C10         -2.7810     0.3400    -0.0990 ca         1 JNP       0.205100
      2 C13         -0.3620     0.4820    -0.1910 ca         1 JNP       0.235100
      3 C01          2.1560     0.6740     1.6320 c3         1 JNP      -0.103100
      4 C02          2.0570     0.7270     0.0790 c6         1 JNP       0.200000
      5 C03          3.1040     1.7410    -0.4530 c3         1 JNP      -0.103100
      6 C04          2.2330    -0.6570    -0.5710 c6         1 JNP      -0.211400
      7 C05          1.0720    -1.5690    -0.2110 c          1 JNP       0.602700
      8 O06          1.2440    -2.7500     0.0610 o          1 JNP      -0.529100
      9 C07         -0.2730    -0.9210    -0.1540 ca         1 JNP      -0.309600
     10 C08         -1.4490    -1.6940    -0.0700 ca         1 JNP       0.018000
     11 C09         -2.7000    -1.0570    -0.0420 ca         1 JNP      -0.199000
     12 O11         -3.9980     0.9460    -0.0770 oh         1 JNP      -0.524100
     13 C12         -1.6140     1.1090    -0.1760 ca         1 JNP      -0.273000
     14 O14          0.7650     1.2720    -0.2550 os         1 JNP      -0.348100
     15 H013         2.0080     1.6670     2.0730 hc         1 JNP       0.050867
     16 H011         1.4040     0.0070     2.0700 hc         1 JNP       0.050867
     17 H012         3.1400     0.3140     1.9520 hc         1 JNP       0.050867
     18 H032         4.1250     1.4180    -0.2160 hc         1 JNP       0.050867
     19 H033         3.0350     1.8480    -1.5420 hc         1 JNP       0.050867
     20 H031         2.9590     2.7350    -0.0130 hc         1 JNP       0.050867
     21 H041         2.1680    -0.5000    -1.6560 hc         1 JNP       0.081700
     22 H042         3.1930    -1.1360    -0.3400 hc         1 JNP       0.081700
     23 H081        -1.3980    -2.7820    -0.0350 ha         1 JNP       0.134000
     24 H091        -3.6090    -1.6500     0.0190 ha         1 JNP       0.136000
     25 H111        -3.8550     1.9150    -0.1250 ho         1 JNP       0.471000
     26 H121        -1.6660     2.1940    -0.2150 ha         1 JNP       0.130000
@<TRIPOS>BOND
     1     1    11 ar  
     2     1    12 1   
     3     1    13 ar  
     4     2     9 ar  
     5     2    13 ar  
     6     2    14 1   
     7     3     4 1   
     8     3    15 1   
     9     3    16 1   
    10     3    17 1   
    11     4     5 1   
    12     4     6 1   
    13     4    14 1   
    14     5    18 1   
    15     5    19 1   
    16     5    20 1   
    17     6     7 1   
    18     6    21 1   
    19     6    22 1   
    20     7     8 2   
    21     7     9 1   
    22     9    10 ar  
    23    10    11 ar  
    24    10    23 1   
    25    11    24 1   
    26    12    25 1   
    27    13    26 1   
@<TRIPOS>SUBSTRUCTURE
     1 JNP         1 TEMP              0 ****  ****    0 ROOT
