@<TRIPOS>MOLECULE
JNS
   31    33     1     0     0
SMALL
No Charge or Current Charge


@<TRIPOS>ATOM
      1 C1          -3.4010    -1.3270     1.4460 ca         1 JNS      -0.119500
      2 C2          -4.7120    -1.3720     0.9430 ca         1 JNS      -0.132000
      3 C3          -2.5150    -0.3250     1.0120 ca         1 JNS      -0.104500
      4 C4          -0.1720    -0.7480    -1.0820 ca         1 JNS      -0.125000
      5 C5          -5.1370    -0.4120     0.0100 ca         1 JNS      -0.119500
      6 C6           0.7050    -1.8510    -1.1120 ca         1 JNS      -0.130000
      7 C7          -2.9300     0.6320     0.0640 ca         1 JNS      -0.020800
      8 C8           0.2720     0.5290    -0.6480 ca         1 JNS      -0.059800
      9 C9           1.6310     0.6990    -0.2580 ca         1 JNS      -0.091600
     10 C10         -4.2500     0.5890    -0.4240 ca         1 JNS      -0.104500
     11 C11          2.0250    -1.6500    -0.7030 ca         1 JNS       0.023100
     12 C12          2.4720    -0.4250    -0.2940 ca         1 JNS       0.067100
     13 C14         -2.0100     1.7080    -0.3930 ce         1 JNS      -0.226200
     14 C15         -0.6660     1.6740    -0.6360 cf         1 JNS      -0.062200
     15 C16          2.1760     2.0210     0.2050 c          1 JNS       0.719600
     16 C17          4.1370    -1.8690    -0.0990 c5         1 JNS       0.365600
     17 O19          2.4320     2.8670    -0.6410 o          1 JNS      -0.705500
     18 O20          2.3080     2.2020     1.4080 o          1 JNS      -0.705500
     19 O21          3.0010    -2.5930    -0.6880 os         1 JNS      -0.369100
     20 O22          3.7930    -0.4460     0.0280 os         1 JNS      -0.304100
     21 H1          -3.0720    -2.0650     2.1740 ha         1 JNS       0.100000
     22 H2          -5.3980    -2.1460     1.2790 ha         1 JNS       0.095000
     23 H3          -1.5070    -0.2900     1.4160 ha         1 JNS       0.121000
     24 H5          -6.1530    -0.4420    -0.3770 ha         1 JNS       0.100000
     25 H10         -4.5860     1.3300    -1.1460 ha         1 JNS       0.121000
     26 H14         -2.5060     2.6710    -0.5190 ha         1 JNS       0.161000
     27 H15         -0.2080     2.6230    -0.9240 ha         1 JNS       0.206000
     28 H171         4.3380    -2.2750     0.8990 h2         1 JNS       0.042200
     29 H172         5.0200    -1.9810    -0.7380 h2         1 JNS       0.042200
     30 H4          -1.1980    -0.8840    -1.4140 ha         1 JNS       0.102000
     31 H6           0.3670    -2.8280    -1.4490 ha         1 JNS       0.109000
@<TRIPOS>BOND
     1     1     2 ar  
     2     1     3 ar  
     3     1    21 1   
     4     2     5 ar  
     5     2    22 1   
     6     3     7 ar  
     7     3    23 1   
     8     4     6 ar  
     9     4     8 ar  
    10     4    30 1   
    11     5    10 ar  
    12     5    24 1   
    13     6    11 ar  
    14     6    31 1   
    15     7    10 ar  
    16     7    13 1   
    17     8     9 ar  
    18     8    14 1   
    19     9    12 ar  
    20     9    15 1   
    21    10    25 1   
    22    11    12 ar  
    23    11    19 1   
    24    12    20 1   
    25    13    14 2   
    26    13    26 1   
    27    14    27 1   
    28    15    17 1   
    29    15    18 1   
    30    16    19 1   
    31    16    20 1   
    32    16    28 1   
    33    16    29 1   
@<TRIPOS>SUBSTRUCTURE
     1 JNS         1 TEMP              0 ****  ****    0 ROOT
