@<TRIPOS>MOLECULE
JNS
   31    33     1     0     0
SMALL
abcg2


@<TRIPOS>ATOM
      1 C1          -3.0180    -1.1510     1.5310 ca         1 JNS      -0.119500
      2 C2          -4.3650    -1.2730     1.2080 ca         1 JNS      -0.132000
      3 C3          -2.2290    -0.2000     0.9040 ca         1 JNS      -0.104500
      4 C4          -0.0860    -0.6370    -1.5650 ca         1 JNS      -0.125000
      5 C5          -4.9190    -0.4210     0.2620 ca         1 JNS      -0.119500
      6 C6           0.7200    -1.7760    -1.5050 ca         1 JNS      -0.130000
      7 C7          -2.7690     0.6540    -0.0630 ca         1 JNS      -0.020800
      8 C8           0.2400     0.5440    -0.9040 ca         1 JNS      -0.059800
      9 C9           1.4170     0.6320    -0.1230 ca         1 JNS      -0.091600
     10 C10         -4.1300     0.5370    -0.3580 ca         1 JNS      -0.104500
     11 C11          1.8550    -1.6780    -0.7420 ca         1 JNS       0.023100
     12 C12          2.1810    -0.5150    -0.0600 ca         1 JNS       0.067100
     13 C14         -1.9830     1.6950    -0.7400 ce         1 JNS      -0.226200
     14 C15         -0.6820     1.6890    -1.0500 cf         1 JNS      -0.062200
     15 C16          1.8240     1.8790     0.6450 c          1 JNS       0.719600
     16 C17          3.8610    -1.9510     0.1450 c5         1 JNS       0.365600
     17 O19          1.6030     2.9720     0.0920 o          1 JNS      -0.705500
     18 O20          2.3490     1.6910     1.7560 o          1 JNS      -0.705500
     19 O21          2.7930    -2.6280    -0.5010 os         1 JNS      -0.369100
     20 O22          3.3390    -0.7230     0.6220 os         1 JNS      -0.304100
     21 H1          -2.5800    -1.7980     2.2810 ha         1 JNS       0.100000
     22 H2          -4.9790    -2.0180     1.6970 ha         1 JNS       0.095000
     23 H3          -1.1870    -0.1130     1.1800 ha         1 JNS       0.121000
     24 H5          -5.9680    -0.4990     0.0090 ha         1 JNS       0.100000
     25 H10         -4.5740     1.2030    -1.0880 ha         1 JNS       0.121000
     26 H14         -2.5480     2.5790    -1.0220 ha         1 JNS       0.161000
     27 H15         -0.2730     2.5880    -1.4920 ha         1 JNS       0.206000
     28 H171         4.2270    -2.5480     0.9800 h2         1 JNS       0.042200
     29 H172         4.6680    -1.7620    -0.5740 h2         1 JNS       0.042200
     30 H4          -0.9930    -0.6720    -2.1530 ha         1 JNS       0.102000
     31 H6           0.4590    -2.6820    -2.0350 ha         1 JNS       0.109000
@<TRIPOS>BOND
     1     1     2 ar  
     2     1     3 ar  
     3     1    21 1   
     4     2     5 ar  
     5     2    22 1   
     6     3     7 ar  
     7     3    23 1   
     8     4     6 ar  
     9     4     8 ar  
    10     4    30 1   
    11     5    10 ar  
    12     5    24 1   
    13     6    11 ar  
    14     6    31 1   
    15     7    10 ar  
    16     7    13 1   
    17     8     9 ar  
    18     8    14 1   
    19     9    12 ar  
    20     9    15 1   
    21    10    25 1   
    22    11    12 ar  
    23    11    19 1   
    24    12    20 1   
    25    13    14 2   
    26    13    26 1   
    27    14    27 1   
    28    15    17 1   
    29    15    18 1   
    30    16    19 1   
    31    16    20 1   
    32    16    28 1   
    33    16    29 1   
@<TRIPOS>SUBSTRUCTURE
     1 JNS         1 TEMP              0 ****  ****    0 ROOT
