@<TRIPOS>MOLECULE
JNT
   59    61     1     0     0
SMALL
bcc


@<TRIPOS>ATOM
      1 O5          -0.9130     2.6920    -0.2820 os         1 JNT      -0.532200
      2 C5          -2.2160     3.1750    -0.0600 c3         1 JNT       0.190400
      3 C4          -3.0980     2.7820    -1.2300 c5         1 JNT       0.134100
      4 O4          -3.0690     1.3670    -1.4380 os         1 JNT      -0.363600
      5 C3          -4.5560     3.1330    -0.9750 c5         1 JNT       0.075100
      6 O3          -5.2050     3.3180    -2.2060 oh         1 JNT      -0.591800
      7 C2          -5.0430     1.8550    -0.2840 c5         1 JNT       0.045100
      8 O2          -6.4170     1.6260    -0.3660 oh         1 JNT      -0.583800
      9 C1          -4.2850     0.7860    -1.0720 c5         1 JNT       0.271800
     10 N9          -4.0260    -0.4200    -0.3190 na         1 JNT      -0.264000
     11 C8          -3.0640    -0.6170     0.6370 cc         1 JNT       0.468700
     12 N7          -3.1010    -1.8100     1.1580 nd         1 JNT      -0.567100
     13 C7          -4.1410    -2.4330     0.5190 ca         1 JNT      -0.210200
     14 C9          -4.7290    -1.5860    -0.4070 ca         1 JNT       0.431800
     15 N3          -5.7550    -1.8770    -1.2060 nb         1 JNT      -0.733000
     16 C10         -6.1820    -3.1130    -1.0220 ca         1 JNT       0.668900
     17 N1          -5.7230    -4.0310    -0.1740 nb         1 JNT      -0.853000
     18 C6          -4.6910    -3.7240     0.6200 ca         1 JNT       0.757200
     19 N6          -4.2350    -4.6370     1.4820 nv         1 JNT      -0.965500
     20 C1A          8.1750    -3.3200    -0.2070 c3         1 JNT       0.100400
     21 C2A          6.6860    -3.0190    -0.2020 c3         1 JNT       0.102100
     22 O2C          6.0270    -3.6730    -1.2750 oh         1 JNT      -0.583800
     23 C3A          6.4180    -1.5000    -0.2040 c3         1 JNT       0.069100
     24 O3C          7.0700    -0.8950     0.8910 oh         1 JNT      -0.593800
     25 C4A          4.9130    -1.1590    -0.2070 c3         1 JNT       0.117100
     26 O4C          4.2710    -1.5990    -1.3770 oh         1 JNT      -0.563800
     27 C5A          4.7020     0.3420    -0.1060 c3         1 JNT       0.214400
     28 O5A          3.3130     0.6080    -0.0750 os         1 JNT      -0.538200
     29 PB           2.8410     1.9670     0.7200 p5         1 JNT       1.457800
     30 O2B          3.5030     3.1580     0.1030 o          1 JNT      -0.852000
     31 O1B          2.9100     1.7380     2.1970 o          1 JNT      -0.852000
     32 O3A          1.2850     1.8640     0.1960 os         1 JNT      -0.683800
     33 PA          -0.0050     2.3840     1.0590 p5         1 JNT       1.461800
     34 O1A          0.2960     3.6670     1.7640 o          1 JNT      -0.853000
     35 O2A         -0.6170     1.2370     1.8070 o          1 JNT      -0.853000
     36 H1          -2.6380     2.7840     0.8750 h1         1 JNT       0.011700
     37 H2          -2.2240     4.2680     0.0220 h1         1 JNT       0.011700
     38 H3          -2.7290     3.2660    -2.1390 h1         1 JNT       0.096700
     39 H4          -4.6560     4.0120    -0.3240 h1         1 JNT       0.050700
     40 H5          -6.1500     3.1840    -2.0670 ho         1 JNT       0.402000
     41 H6          -4.6960     1.8560     0.7570 h1         1 JNT       0.073700
     42 H7          -6.8550     2.1030     0.3460 ho         1 JNT       0.399000
     43 H8          -4.8680     0.4790    -1.9480 h2         1 JNT       0.093700
     44 H9          -2.3400     0.1450     0.9010 h5         1 JNT       0.158800
     45 H10         -7.0170    -3.4280    -1.6400 h5         1 JNT       0.022100
     46 H11         -4.5910    -5.5770     1.4500 hn         1 JNT       0.439800
     47 H12         -3.3920    -4.4710     2.0030 hn         1 JNT       0.439800
     48 H13          9.2980    -4.8890    -0.0820 ho         1 JNT       0.389000
     49 H16          6.2430    -3.4420     0.7090 h1         1 JNT       0.082700
     50 H17          6.5120    -3.4960    -2.0910 ho         1 JNT       0.399000
     51 H19          6.6910    -1.2400     1.7080 ho         1 JNT       0.408000
     52 H20          4.4630    -1.6240     0.6890 h1         1 JNT       0.040700
     53 H21          4.5510    -2.5140    -1.5250 ho         1 JNT       0.388000
     54 H22          5.2040     0.7120     0.7920 h1         1 JNT       0.019200
     55 H23          5.1660     0.8380    -0.9680 h1         1 JNT       0.019200
     56 H14          8.6490    -2.7980     0.6300 h1         1 JNT       0.027200
     57 O1C          8.3540    -4.7140    -0.1200 oh         1 JNT      -0.593800
     58 H18          6.8720    -1.0620    -1.1030 h1         1 JNT       0.069700
     59 H15          8.6180    -2.9130    -1.1290 h1         1 JNT       0.027200
@<TRIPOS>BOND
     1     1     2 1   
     2     1    33 1   
     3     2     3 1   
     4     2    36 1   
     5     2    37 1   
     6     3     4 1   
     7     3     5 1   
     8     3    38 1   
     9     4     9 1   
    10     5     6 1   
    11     5     7 1   
    12     5    39 1   
    13     6    40 1   
    14     7     8 1   
    15     7     9 1   
    16     7    41 1   
    17     8    42 1   
    18     9    10 1   
    19     9    43 1   
    20    10    11 1   
    21    10    14 1   
    22    11    12 2   
    23    11    44 1   
    24    12    13 1   
    25    13    14 ar  
    26    13    18 ar  
    27    14    15 ar  
    28    15    16 ar  
    29    16    17 ar  
    30    16    45 1   
    31    17    18 ar  
    32    18    19 1   
    33    19    46 1   
    34    19    47 1   
    35    20    21 1   
    36    20    56 1   
    37    20    57 1   
    38    20    59 1   
    39    21    22 1   
    40    21    23 1   
    41    21    49 1   
    42    22    50 1   
    43    23    24 1   
    44    23    25 1   
    45    23    58 1   
    46    24    51 1   
    47    25    26 1   
    48    25    27 1   
    49    25    52 1   
    50    26    53 1   
    51    27    28 1   
    52    27    54 1   
    53    27    55 1   
    54    28    29 1   
    55    29    30 1   
    56    29    31 1   
    57    29    32 1   
    58    32    33 1   
    59    33    34 1   
    60    33    35 1   
    61    48    57 1   
@<TRIPOS>SUBSTRUCTURE
     1 JNT         1 TEMP              0 ****  ****    0 ROOT
