@<TRIPOS>MOLECULE
JNT
   59    61     1     0     0
SMALL
No Charge or Current Charge


@<TRIPOS>ATOM
      1 O5          -0.6130     3.9290     2.1950 os         1 JNT      -0.555400
      2 C5          -1.6750     3.3820     1.3960 c3         1 JNT       0.213600
      3 C4          -1.1200     2.8030     0.0570 c5         1 JNT       0.157300
      4 O4          -1.1650     1.3470     0.1100 os         1 JNT      -0.410000
      5 C3          -1.9780     3.2060    -1.1990 c5         1 JNT       0.098300
      6 O3          -1.2110     3.2560    -2.4110 oh         1 JNT      -0.714000
      7 C2          -2.9830     2.0220    -1.2370 c5         1 JNT       0.068300
      8 O2          -3.6810     1.9410    -2.4970 oh         1 JNT      -0.706000
      9 C1          -1.9690     0.8610    -0.9810 c5         1 JNT       0.324300
     10 N9          -2.4900    -0.4630    -0.6500 na         1 JNT      -0.293300
     11 C8          -3.7280    -0.7390    -0.0560 cc         1 JNT       0.468700
     12 N7          -3.9160    -2.0690     0.0870 nd         1 JNT      -0.567100
     13 C7          -2.7500    -2.6200    -0.4530 ca         1 JNT      -0.079600
     14 C9          -1.8820    -1.6590    -0.9060 ca         1 JNT       0.103500
     15 N3          -0.6990    -1.9690    -1.4740 nb         1 JNT      -0.207000
     16 C10         -0.4160    -3.2920    -1.5570 ca         1 JNT       0.142900
     17 N1          -1.1980    -4.3170    -1.1380 nb         1 JNT      -0.327000
     18 C6          -2.3730    -3.9740    -0.5860 ca         1 JNT       0.428900
     19 N6          -3.1580    -5.0040    -0.1690 nv         1 JNT      -1.075900
     20 C1A          4.6900    -2.3530    -2.1820 c3         1 JNT       0.123600
     21 C2A          4.1030    -2.4830    -0.7510 c3         1 JNT       0.125300
     22 O2C          3.6870    -3.8520    -0.6060 oh         1 JNT      -0.706000
     23 C3A          2.9190    -1.4940    -0.4750 c3         1 JNT       0.092300
     24 O3C          3.3760    -0.1390    -0.6860 oh         1 JNT      -0.716000
     25 C4A          2.2950    -1.6460     0.9550 c3         1 JNT       0.140300
     26 O4C          1.9030    -3.0150     1.1600 oh         1 JNT      -0.686000
     27 C5A          1.0710    -0.6970     1.2010 c3         1 JNT       0.237600
     28 O5A          1.2290     0.0080     2.4420 os         1 JNT      -0.561400
     29 PB           2.2180     1.2760     2.5320 p5         1 JNT       1.457800
     30 O2B          3.3410     1.1220     1.5590 o          1 JNT      -0.852000
     31 O1B          2.7600     1.4550     3.9110 o          1 JNT      -0.852000
     32 O3A          1.2510     2.4190     2.0350 os         1 JNT      -0.683800
     33 PA           0.3220     3.0250     3.1540 p5         1 JNT       1.461800
     34 O1A          1.0590     3.9500     4.0670 o          1 JNT      -0.853000
     35 O2A         -0.5140     2.0350     3.8960 o          1 JNT      -0.853000
     36 H1          -2.2230     2.6020     1.9400 h1         1 JNT       0.011700
     37 H2          -2.3950     4.1790     1.1710 h1         1 JNT       0.011700
     38 H3          -0.0800     3.1320    -0.0710 h1         1 JNT       0.096700
     39 H4          -2.4950     4.1640    -1.0450 h1         1 JNT       0.050700
     40 H5          -1.8300     2.9430    -3.1140 ho         1 JNT       0.501000
     41 H6          -3.6960     2.1000    -0.4030 h1         1 JNT       0.073700
     42 H7          -4.4640     2.5420    -2.4490 ho         1 JNT       0.498000
     43 H8          -1.3340     0.7250    -1.8660 h2         1 JNT       0.093700
     44 H9          -4.4220     0.0390     0.2450 h5         1 JNT       0.158800
     45 H10          0.5380    -3.5590    -2.0080 h5         1 JNT       0.022100
     46 H11         -2.7200    -5.9110    -0.0300 hn         1 JNT       0.495000
     47 H12         -3.9410    -4.7740     0.4390 hn         1 JNT       0.495000
     48 H13          6.0170    -3.2840    -3.3060 ho         1 JNT       0.488000
     49 H16          4.9090    -2.2600    -0.0370 h1         1 JNT       0.082700
     50 H17          4.3070    -4.3260    -1.2190 ho         1 JNT       0.498000
     51 H19          3.3990     0.3330     0.2100 ho         1 JNT       0.507000
     52 H20          3.0850    -1.4080     1.6790 h1         1 JNT       0.040700
     53 H21          2.5130    -3.5320     0.5600 ho         1 JNT       0.487000
     54 H22          0.9850     0.0150     0.3710 h1         1 JNT       0.019200
     55 H23          0.1420    -1.2810     1.2190 h1         1 JNT       0.019200
     56 H14          5.2280    -1.4000    -2.2700 h1         1 JNT       0.027200
     57 O1C          5.5790    -3.4590    -2.4380 oh         1 JNT      -0.716000
     58 H18          2.1300    -1.7210    -1.2050 h1         1 JNT       0.069700
     59 H15          3.8710    -2.3460    -2.9140 h1         1 JNT       0.027200
@<TRIPOS>BOND
     1     1     2 1   
     2     1    33 1   
     3     2     3 1   
     4     2    36 1   
     5     2    37 1   
     6     3     4 1   
     7     3     5 1   
     8     3    38 1   
     9     4     9 1   
    10     5     6 1   
    11     5     7 1   
    12     5    39 1   
    13     6    40 1   
    14     7     8 1   
    15     7     9 1   
    16     7    41 1   
    17     8    42 1   
    18     9    10 1   
    19     9    43 1   
    20    10    11 1   
    21    10    14 1   
    22    11    12 2   
    23    11    44 1   
    24    12    13 1   
    25    13    14 ar  
    26    13    18 ar  
    27    14    15 ar  
    28    15    16 ar  
    29    16    17 ar  
    30    16    45 1   
    31    17    18 ar  
    32    18    19 1   
    33    19    46 1   
    34    19    47 1   
    35    20    21 1   
    36    20    56 1   
    37    20    57 1   
    38    20    59 1   
    39    21    22 1   
    40    21    23 1   
    41    21    49 1   
    42    22    50 1   
    43    23    24 1   
    44    23    25 1   
    45    23    58 1   
    46    24    51 1   
    47    25    26 1   
    48    25    27 1   
    49    25    52 1   
    50    26    53 1   
    51    27    28 1   
    52    27    54 1   
    53    27    55 1   
    54    28    29 1   
    55    29    30 1   
    56    29    31 1   
    57    29    32 1   
    58    32    33 1   
    59    33    34 1   
    60    33    35 1   
    61    48    57 1   
@<TRIPOS>SUBSTRUCTURE
     1 JNT         1 TEMP              0 ****  ****    0 ROOT
