@<TRIPOS>MOLECULE
JNU
   47    50     1     0     0
SMALL
No Charge or Current Charge


@<TRIPOS>ATOM
      1 C01         90.9630    -7.7060    13.0510 cc         1 JNU      -0.011000
      2 C02         91.2030    -8.7010    12.1360 cd         1 JNU      -0.170000
      3 C05         91.2710    -7.9900    14.4050 cc         1 JNU      -0.126000
      4 C07         92.0090    -9.2730    16.0950 cc         1 JNU      -0.048300
      5 N09         91.1480    -7.2380    15.4810 nd         1 JNU      -0.216600
      6 C10         92.5690   -10.4590    16.8410 c3         1 JNU      -0.025900
      7 C16         93.4550   -10.9910    11.0270 c3         1 JNU      -0.102700
      8 C17         93.7590   -12.1090    10.0640 cc         1 JNU       0.448800
      9 C20         93.9810   -13.3040     8.3630 cd         1 JNU       0.812900
     10 C24         94.3040   -14.9920     6.5290 c5         1 JNU       0.240800
     11 C25         93.6980   -14.9570     5.1020 c5         1 JNU      -0.096400
     12 C26         93.9560   -13.4820     4.6940 c5         1 JNU      -0.096400
     13 C27         93.4880   -12.7240     5.9630 c5         1 JNU       0.240800
     14 C03         91.7450    -9.9590    12.6030 cd         1 JNU       0.328300
     15 N04         92.0470   -10.2530    13.8780 nc         1 JNU      -0.469800
     16 N06         91.7820    -9.2090    14.7460 na         1 JNU       0.233900
     17 C08         91.6030    -8.0240    16.5400 cd         1 JNU      -0.084600
     18 N18         94.2570   -13.3550    10.4020 na         1 JNU      -0.062700
     19 N19         94.4030   -14.1320     9.2960 nc         1 JNU      -0.611800
     20 N21         93.5730   -12.0620     8.7600 nd         1 JNU      -0.759000
     21 N23         93.9350   -13.6490     7.0300 nh         1 JNU      -0.796300
     22 H28         90.5580    -6.7390    12.7660 ha         1 JNU       0.153000
     23 H29         90.9920    -8.5460    11.0840 ha         1 JNU       0.138000
     24 H31         93.5620   -10.7250    16.4590 hc         1 JNU       0.063367
     25 H30         92.6670   -10.2540    17.9130 hc         1 JNU       0.063367
     26 H32         91.9180   -11.3330    16.7260 hc         1 JNU       0.063367
     27 H34         91.8830   -12.0430    12.0990 hc         1 JNU       0.085700
     28 H33         91.2970   -11.0270    10.8010 hc         1 JNU       0.085700
     29 H35         93.5810   -10.0290    10.5150 hc         1 JNU       0.059700
     30 H36         94.1880   -10.9990    11.8430 hc         1 JNU       0.059700
     31 H37         95.4500   -13.2780    12.1420 h1         1 JNU       0.055033
     32 H38         93.7460   -13.7480    12.4140 h1         1 JNU       0.055033
     33 H39         94.8900   -14.9140    11.6910 h1         1 JNU       0.055033
     34 H41         95.3960   -15.1150     6.5000 h1         1 JNU       0.048950
     35 H40         93.8780   -15.8060     7.1320 h1         1 JNU       0.048950
     36 H43         94.1750   -15.6770     4.4280 hc         1 JNU       0.052200
     37 H42         92.6250   -15.1830     5.1220 hc         1 JNU       0.052200
     38 H45         95.0200   -13.3040     4.4950 hc         1 JNU       0.052200
     39 H44         93.3980   -13.1820     3.8000 hc         1 JNU       0.052200
     40 H46         92.3960   -12.6020     5.9810 h1         1 JNU       0.048950
     41 H47         93.9520   -11.7300     6.0370 h1         1 JNU       0.048950
     42 C11         91.6230    -7.5100    17.9690 c3         1 JNU       0.395200
     43 C15         92.0260   -11.0670    11.6190 c3         1 JNU      -0.118700
     44 C22         94.6070   -13.8560    11.7430 c3         1 JNU       0.077900
     45 F12         90.8640    -8.2780    18.7830 f          1 JNU      -0.108333
     46 F13         92.8760    -7.5090    18.4790 f          1 JNU      -0.108333
     47 F14         91.1550    -6.2440    18.0750 f          1 JNU      -0.108333
@<TRIPOS>BOND
     1     1     2 2   
     2     1     3 1   
     3     1    22 1   
     4     2    14 1   
     5     2    23 1   
     6     3     5 2   
     7     3    16 1   
     8     4     6 1   
     9     4    16 1   
    10     4    17 2   
    11     5    17 1   
    12     6    24 1   
    13     6    25 1   
    14     6    26 1   
    15     7     8 1   
    16     7    29 1   
    17     7    30 1   
    18     7    43 1   
    19     8    18 1   
    20     8    20 2   
    21     9    19 2   
    22     9    20 1   
    23     9    21 1   
    24    10    11 1   
    25    10    21 1   
    26    10    34 1   
    27    10    35 1   
    28    11    12 1   
    29    11    36 1   
    30    11    37 1   
    31    12    13 1   
    32    12    38 1   
    33    12    39 1   
    34    13    21 1   
    35    13    40 1   
    36    13    41 1   
    37    14    15 2   
    38    14    43 1   
    39    15    16 1   
    40    17    42 1   
    41    18    19 1   
    42    18    44 1   
    43    27    43 1   
    44    28    43 1   
    45    31    44 1   
    46    32    44 1   
    47    33    44 1   
    48    42    45 1   
    49    42    46 1   
    50    42    47 1   
@<TRIPOS>SUBSTRUCTURE
     1 JNU         1 TEMP              0 ****  ****    0 ROOT
