@<TRIPOS>MOLECULE
JNU
   47    50     1     0     0
SMALL
abcg2


@<TRIPOS>ATOM
      1 C01         92.9920    -7.5610    13.5230 cc         1 JNU      -0.011000
      2 C02         93.1260    -8.4380    12.4970 cd         1 JNU      -0.170000
      3 C05         92.2300    -7.9730    14.6340 cc         1 JNU      -0.126000
      4 C07         90.9780    -9.4460    15.7330 cc         1 JNU      -0.048300
      5 N09         91.9180    -7.3740    15.7600 nd         1 JNU      -0.216600
      6 C10         90.2560   -10.7110    16.0010 c3         1 JNU      -0.025900
      7 C16         94.1040   -11.2400    11.3970 c3         1 JNU      -0.102700
      8 C17         94.3460   -12.1000    10.2030 cc         1 JNU       0.448800
      9 C20         94.1650   -13.1630     8.4040 cd         1 JNU       0.812900
     10 C24         94.3160   -14.6210     6.4350 c5         1 JNU       0.240800
     11 C25         93.1890   -15.2460     5.6140 c5         1 JNU      -0.096400
     12 C26         92.1330   -14.1450     5.5590 c5         1 JNU      -0.096400
     13 C27         92.2200   -13.5080     6.9410 c5         1 JNU       0.240800
     14 C03         92.5070    -9.7250    12.5690 cd         1 JNU       0.328300
     15 N04         91.7970   -10.1140    13.5860 nc         1 JNU      -0.469800
     16 N06         91.6770    -9.2360    14.5820 na         1 JNU       0.233900
     17 C08         91.1550    -8.2690    16.4270 cd         1 JNU      -0.084600
     18 N18         95.5040   -12.6990     9.9310 na         1 JNU      -0.062700
     19 N19         95.4120   -13.3910     8.7710 nc         1 JNU      -0.611800
     20 N21         93.4680   -12.3730     9.2580 nd         1 JNU      -0.759000
     21 N23         93.6240   -13.6580     7.2710 nh         1 JNU      -0.796300
     22 H28         93.4380    -6.5760    13.5120 ha         1 JNU       0.153000
     23 H29         93.6940    -8.1780    11.6140 ha         1 JNU       0.138000
     24 H31         90.9300   -11.5660    15.9460 hc         1 JNU       0.063367
     25 H30         89.8060   -10.7030    16.9900 hc         1 JNU       0.063367
     26 H32         89.4620   -10.8710    15.2710 hc         1 JNU       0.063367
     27 H34         91.9630   -11.5090    11.5480 hc         1 JNU       0.085700
     28 H33         92.4510   -10.1840    10.5000 hc         1 JNU       0.085700
     29 H35         94.8220   -10.4150    11.3930 hc         1 JNU       0.059700
     30 H36         94.3050   -11.8090    12.3100 hc         1 JNU       0.059700
     31 H37         97.5260   -12.2000    10.0620 h1         1 JNU       0.055033
     32 H38         96.6260   -12.1280    11.5820 h1         1 JNU       0.055033
     33 H39         97.0580   -13.6950    10.8930 h1         1 JNU       0.055033
     34 H41         95.0560   -14.1290     5.7940 h1         1 JNU       0.048950
     35 H40         94.8500   -15.3620     7.0350 h1         1 JNU       0.048950
     36 H43         93.5250   -15.5700     4.6300 hc         1 JNU       0.052200
     37 H42         92.7920   -16.1210     6.1330 hc         1 JNU       0.052200
     38 H45         92.3900   -13.4110     4.7910 hc         1 JNU       0.052200
     39 H44         91.1340   -14.5190     5.3390 hc         1 JNU       0.052200
     40 H46         91.5760   -14.0310     7.6590 h1         1 JNU       0.048950
     41 H47         91.9190   -12.4590     6.9360 h1         1 JNU       0.048950
     42 C11         90.6320    -7.9460    17.7820 c3         1 JNU       0.395200
     43 C15         92.6770   -10.6930    11.4380 c3         1 JNU      -0.118700
     44 C22         96.7480   -12.6790    10.6540 c3         1 JNU       0.077900
     45 F12         89.3300    -8.2400    17.9030 f          1 JNU      -0.108333
     46 F13         91.2660    -8.6340    18.7450 f          1 JNU      -0.108333
     47 F14         90.7780    -6.6530    18.0660 f          1 JNU      -0.108333
@<TRIPOS>BOND
     1     1     2 2   
     2     1     3 1   
     3     1    22 1   
     4     2    14 1   
     5     2    23 1   
     6     3     5 2   
     7     3    16 1   
     8     4     6 1   
     9     4    16 1   
    10     4    17 2   
    11     5    17 1   
    12     6    24 1   
    13     6    25 1   
    14     6    26 1   
    15     7     8 1   
    16     7    29 1   
    17     7    30 1   
    18     7    43 1   
    19     8    18 1   
    20     8    20 2   
    21     9    19 2   
    22     9    20 1   
    23     9    21 1   
    24    10    11 1   
    25    10    21 1   
    26    10    34 1   
    27    10    35 1   
    28    11    12 1   
    29    11    36 1   
    30    11    37 1   
    31    12    13 1   
    32    12    38 1   
    33    12    39 1   
    34    13    21 1   
    35    13    40 1   
    36    13    41 1   
    37    14    15 2   
    38    14    43 1   
    39    15    16 1   
    40    17    42 1   
    41    18    19 1   
    42    18    44 1   
    43    27    43 1   
    44    28    43 1   
    45    31    44 1   
    46    32    44 1   
    47    33    44 1   
    48    42    45 1   
    49    42    46 1   
    50    42    47 1   
@<TRIPOS>SUBSTRUCTURE
     1 JNU         1 TEMP              0 ****  ****    0 ROOT
