@<TRIPOS>MOLECULE
JNV
   20    20     1     0     0
SMALL
No Charge or Current Charge


@<TRIPOS>ATOM
      1 C10          1.0360    -0.4340     0.0280 ca         1 JNV       0.121000
      2 C01         -4.5740     0.3260    -0.4650 c3         1 JNV      -0.202100
      3 C02         -3.5170    -0.7370    -0.1680 c          1 JNV       0.569100
      4 O03         -3.3600    -1.7040    -0.9020 o          1 JNV      -0.501100
      5 C04         -2.6550    -0.5210     1.0820 c3         1 JNV      -0.143100
      6 C05         -1.2720    -0.0040     0.7020 ca         1 JNV      -0.058300
      7 C06         -1.0180     1.3810     0.6610 ca         1 JNV      -0.091000
      8 C07          0.2570     1.8570     0.3060 ca         1 JNV      -0.095000
      9 C08          1.2860     0.9530    -0.0110 ca         1 JNV       0.120000
     10 Cl09         2.8740     1.5830    -0.4530 cl         1 JNV      -0.172000
     11 Cl11         2.3020    -1.5990    -0.3650 cl         1 JNV      -0.174000
     12 C12         -0.2390    -0.9070     0.3840 ca         1 JNV      -0.081000
     13 H011        -5.1280     0.1260    -1.3900 hc         1 JNV       0.062033
     14 H012        -5.2450     0.4100     0.3970 hc         1 JNV       0.062033
     15 H013        -4.0930     1.3110    -0.4830 hc         1 JNV       0.062033
     16 H042        -3.1440     0.2060     1.7410 hc         1 JNV       0.070200
     17 H041        -2.5580    -1.4770     1.6100 hc         1 JNV       0.070200
     18 H061        -1.8060     2.0910     0.9030 ha         1 JNV       0.118000
     19 H071         0.4480     2.9270     0.2750 ha         1 JNV       0.132000
     20 H121        -0.4240    -1.9780     0.4080 ha         1 JNV       0.130000
@<TRIPOS>BOND
     1     1     9 ar  
     2     1    11 1   
     3     1    12 ar  
     4     2     3 1   
     5     2    13 1   
     6     2    14 1   
     7     2    15 1   
     8     3     4 2   
     9     3     5 1   
    10     5     6 1   
    11     5    16 1   
    12     5    17 1   
    13     6     7 ar  
    14     6    12 ar  
    15     7     8 ar  
    16     7    18 1   
    17     8     9 ar  
    18     8    19 1   
    19     9    10 1   
    20    12    20 1   
@<TRIPOS>SUBSTRUCTURE
     1 JNV         1 TEMP              0 ****  ****    0 ROOT
