@<TRIPOS>MOLECULE
JNV
   20    20     1     0     0
SMALL
abcg2


@<TRIPOS>ATOM
      1 C10          1.0120    -0.5630     0.1290 ca         1 JNV       0.121000
      2 C01         -4.9490    -0.2970    -0.1930 c3         1 JNV      -0.202100
      3 C02         -3.4660    -0.1940    -0.4000 c          1 JNV       0.569100
      4 O03         -2.9490    -0.2580    -1.4900 o          1 JNV      -0.501100
      5 C04         -2.6530     0.0030     0.8660 c3         1 JNV      -0.143100
      6 C05         -1.2020     0.2640     0.6060 ca         1 JNV      -0.058300
      7 C06         -0.7110     1.5620     0.5300 ca         1 JNV      -0.091000
      8 C07          0.6260     1.8020     0.2580 ca         1 JNV      -0.095000
      9 C08          1.4940     0.7400     0.0550 ca         1 JNV       0.120000
     10 CL09         3.1550     1.0470    -0.2810 cl         1 JNV      -0.172000
     11 CL11         2.0690    -1.9030    -0.1150 cl         1 JNV      -0.174000
     12 C12         -0.3270    -0.7950     0.4010 ca         1 JNV      -0.081000
     13 H011        -5.4590    -0.6000    -1.1050 hc         1 JNV       0.062033
     14 H012        -5.1820    -1.0020     0.6070 hc         1 JNV       0.062033
     15 H013        -5.3380     0.6740     0.1220 hc         1 JNV       0.062033
     16 H042        -3.1040     0.8170     1.4410 hc         1 JNV       0.070200
     17 H041        -2.7870    -0.8930     1.4800 hc         1 JNV       0.070200
     18 H061        -1.3740     2.4030     0.6860 ha         1 JNV       0.118000
     19 H071         0.9990     2.8160     0.2030 ha         1 JNV       0.132000
     20 H121        -0.6840    -1.8150     0.4600 ha         1 JNV       0.130000
@<TRIPOS>BOND
     1     1     9 ar  
     2     1    11 1   
     3     1    12 ar  
     4     2     3 1   
     5     2    13 1   
     6     2    14 1   
     7     2    15 1   
     8     3     4 2   
     9     3     5 1   
    10     5     6 1   
    11     5    16 1   
    12     5    17 1   
    13     6     7 ar  
    14     6    12 ar  
    15     7     8 ar  
    16     7    18 1   
    17     8     9 ar  
    18     8    19 1   
    19     9    10 1   
    20    12    20 1   
@<TRIPOS>SUBSTRUCTURE
     1 JNV         1 TEMP              0 ****  ****    0 ROOT
