@<TRIPOS>MOLECULE
JNW
   31    32     1     0     0
SMALL
No Charge or Current Charge


@<TRIPOS>ATOM
      1 OAS          2.1200    -0.3710     2.3720 o          1 JNW      -0.716000
      2 CAR          1.6320     0.5510     1.7390 c          1 JNW       0.710600
      3 OAT          0.6730     1.2070     2.1160 o          1 JNW      -0.716000
      4 CAQ          2.2490     0.9070     0.4110 ca         1 JNW      -0.114600
      5 CAP          3.4940     1.5720     0.4520 ca         1 JNW      -0.091000
      6 CAO          4.1740     1.9110    -0.7260 ca         1 JNW      -0.129000
      7 CAN          3.6190     1.5780    -1.9670 ca         1 JNW      -0.142000
      8 CAM          2.3860     0.9130    -2.0290 ca         1 JNW      -0.105000
      9 CAK          1.6680     0.5710    -0.8550 ca         1 JNW      -0.124600
     10 CAJ          0.3390    -0.1590    -1.0400 c          1 JNW       0.667700
     11 OAL          0.0760    -0.7550    -2.0770 o          1 JNW      -0.611100
     12 N           -0.5620    -0.1530     0.0010 ns         1 JNW      -0.487900
     13 CA          -1.9280    -0.7270    -0.0180 c6         1 JNW       0.045700
     14 CB          -2.3740    -1.1010     1.4220 c6         1 JNW      -0.093400
     15 CG          -3.0660     0.0780     2.1480 c6         1 JNW      -0.163400
     16 CD          -4.1780     0.7110     1.3100 c          1 JNW       0.579000
     17 OE1         -5.1830     1.1890     1.8100 o          1 JNW      -0.542000
     18 NE2         -4.0240     0.6560    -0.0440 ns         1 JNW      -0.489500
     19 C           -2.9440     0.2070    -0.7560 c          1 JNW       0.566000
     20 O           -2.8330     0.5010    -1.9360 o          1 JNW      -0.529000
     21 H2           3.9390     1.8230     1.4130 ha         1 JNW       0.132000
     22 H3           5.1310     2.4240    -0.6760 ha         1 JNW       0.090000
     23 H4           4.1460     1.8350    -2.8830 ha         1 JNW       0.090000
     24 H5           1.9800     0.6690    -3.0080 ha         1 JNW       0.102000
     25 H6          -0.2870     0.3860     0.8190 hn         1 JNW       0.316500
     26 H7          -1.8950    -1.6530    -0.6110 h1         1 JNW       0.097700
     27 H8          -3.0880    -1.9340     1.3610 hc         1 JNW       0.072200
     28 H9          -1.5240    -1.4770     2.0100 hc         1 JNW       0.072200
     29 H10         -3.4470    -0.1820     3.1440 hc         1 JNW       0.101200
     30 H11         -2.3090     0.8620     2.2800 hc         1 JNW       0.101200
     31 H12         -4.7300     1.1370    -0.5810 hn         1 JNW       0.310500
@<TRIPOS>BOND
     1     1     2 1   
     2     2     3 1   
     3     2     4 1   
     4     4     5 ar  
     5     4     9 ar  
     6     5     6 ar  
     7     5    21 1   
     8     6     7 ar  
     9     6    22 1   
    10     7     8 ar  
    11     7    23 1   
    12     8     9 ar  
    13     8    24 1   
    14     9    10 1   
    15    10    11 2   
    16    10    12 1   
    17    12    13 1   
    18    12    25 1   
    19    13    14 1   
    20    13    19 1   
    21    13    26 1   
    22    14    15 1   
    23    14    27 1   
    24    14    28 1   
    25    15    16 1   
    26    15    29 1   
    27    15    30 1   
    28    16    17 2   
    29    16    18 1   
    30    18    19 1   
    31    18    31 1   
    32    19    20 2   
@<TRIPOS>SUBSTRUCTURE
     1 JNW         1 TEMP              0 ****  ****    0 ROOT
