@<TRIPOS>MOLECULE
JNW
   31    32     1     0     0
SMALL
abcg2


@<TRIPOS>ATOM
      1 OAS          0.7730    -0.3200     2.0500 o          1 JNW      -0.716000
      2 CAR          1.6330     0.5820     2.0320 c          1 JNW       0.710600
      3 OAT          2.1020     1.1930     3.0080 o          1 JNW      -0.716000
      4 CAQ          2.1690     0.9580     0.6570 ca         1 JNW      -0.114600
      5 CAP          3.2450     1.8350     0.5440 ca         1 JNW      -0.091000
      6 CAO          3.7810     2.1610    -0.6920 ca         1 JNW      -0.129000
      7 CAN          3.2400     1.6110    -1.8460 ca         1 JNW      -0.142000
      8 CAM          2.1650     0.7410    -1.7510 ca         1 JNW      -0.105000
      9 CAK          1.6270     0.4130    -0.5080 ca         1 JNW      -0.124600
     10 CAJ          0.4750    -0.5500    -0.5160 c          1 JNW       0.667700
     11 OAL          0.6290    -1.7410    -0.7240 o          1 JNW      -0.611100
     12 N           -0.7400     0.0440    -0.4720 ns         1 JNW      -0.487900
     13 CA          -1.9600    -0.7330    -0.3890 c6         1 JNW       0.045700
     14 CB          -2.2880    -1.2160     1.0170 c6         1 JNW      -0.093400
     15 CG          -2.6100    -0.0450     1.9270 c6         1 JNW      -0.163400
     16 CD          -3.6690     0.8530     1.3580 c          1 JNW       0.579000
     17 OE1         -4.3770     1.5740     2.0230 o          1 JNW      -0.542000
     18 NE2         -3.8100     0.8390    -0.0200 ns         1 JNW      -0.489500
     19 C           -3.0810     0.1290    -0.9450 c          1 JNW       0.566000
     20 O           -3.3200     0.2200    -2.1260 o          1 JNW      -0.529000
     21 H2           3.6680     2.2600     1.4440 ha         1 JNW       0.132000
     22 H3           4.6210     2.8410    -0.7550 ha         1 JNW       0.090000
     23 H4           3.6510     1.8560    -2.8160 ha         1 JNW       0.090000
     24 H5           1.7390     0.3170    -2.6520 ha         1 JNW       0.102000
     25 H6          -0.7630     1.0080    -0.1790 hn         1 JNW       0.316500
     26 H7          -1.8630    -1.5850    -1.0620 h1         1 JNW       0.097700
     27 H8          -3.1400    -1.8990     0.9620 hc         1 JNW       0.072200
     28 H9          -1.4460    -1.7770     1.4150 hc         1 JNW       0.072200
     29 H10         -2.9480    -0.3800     2.9080 hc         1 JNW       0.101200
     30 H11         -1.7090     0.5510     2.1030 hc         1 JNW       0.101200
     31 H12         -4.5390     1.4360    -0.3950 hn         1 JNW       0.310500
@<TRIPOS>BOND
     1     1     2 1   
     2     2     3 1   
     3     2     4 1   
     4     4     5 ar  
     5     4     9 ar  
     6     5     6 ar  
     7     5    21 1   
     8     6     7 ar  
     9     6    22 1   
    10     7     8 ar  
    11     7    23 1   
    12     8     9 ar  
    13     8    24 1   
    14     9    10 1   
    15    10    11 2   
    16    10    12 1   
    17    12    13 1   
    18    12    25 1   
    19    13    14 1   
    20    13    19 1   
    21    13    26 1   
    22    14    15 1   
    23    14    27 1   
    24    14    28 1   
    25    15    16 1   
    26    15    29 1   
    27    15    30 1   
    28    16    17 2   
    29    16    18 1   
    30    18    19 1   
    31    18    31 1   
    32    19    20 2   
@<TRIPOS>SUBSTRUCTURE
     1 JNW         1 TEMP              0 ****  ****    0 ROOT
