@<TRIPOS>MOLECULE
JNY
   19    19     1     0     0
SMALL
No Charge or Current Charge


@<TRIPOS>ATOM
      1 C01          3.2460     2.0550     0.1440 c3         1 JNY      -0.078900
      2 C02          2.0910     1.0970     0.0650 cc         1 JNY       0.107400
      3 C03          0.7600     1.4420     0.0590 cd         1 JNY      -0.294000
      4 C04         -0.2770     0.4250    -0.0210 cd         1 JNY      -0.043200
      5 C05          0.1600    -0.9030    -0.0890 cc         1 JNY      -0.071900
      6 C06         -0.7320    -2.0120    -0.1710 cg         1 JNY       0.289700
      7 N07         -1.4870    -2.9000    -0.2370 n1         1 JNY      -0.410000
      8 C08          1.5950    -1.2810    -0.0820 c          1 JNY       0.565200
      9 O09          2.0270    -2.4250    -0.1400 o          1 JNY      -0.517000
     10 N10          2.4560    -0.2240    -0.0040 ns         1 JNY      -0.355100
     11 C11         -1.7570     0.8170    -0.0280 c3         1 JNY       0.354200
     12 F12         -1.9470     2.1550     0.0460 f          1 JNY      -0.101333
     13 F13         -2.3810     0.4040    -1.1550 f          1 JNY      -0.101333
     14 F14         -2.4250     0.2780     1.0180 f          1 JNY      -0.101333
     15 H011         3.8560     1.8640     1.0350 hc         1 JNY       0.068033
     16 H012         3.8920     1.9660    -0.7380 hc         1 JNY       0.068033
     17 H013         2.8970     3.0930     0.1960 hc         1 JNY       0.068033
     18 H031         0.4960     2.4960     0.1140 ha         1 JNY       0.218000
     19 H101         3.4380    -0.4700     0.0010 hn         1 JNY       0.335500
@<TRIPOS>BOND
     1     1     2 1   
     2     1    15 1   
     3     1    16 1   
     4     1    17 1   
     5     2     3 2   
     6     2    10 1   
     7     3     4 1   
     8     3    18 1   
     9     4     5 2   
    10     4    11 1   
    11     5     6 1   
    12     5     8 1   
    13     6     7 3   
    14     8     9 2   
    15     8    10 1   
    16    10    19 1   
    17    11    12 1   
    18    11    13 1   
    19    11    14 1   
@<TRIPOS>SUBSTRUCTURE
     1 JNY         1 TEMP              0 ****  ****    0 ROOT
