@<TRIPOS>MOLECULE
JNY
   19    19     1     0     0
SMALL
bcc


@<TRIPOS>ATOM
      1 C01          3.1690     2.0720     0.0070 c3         1 JNY      -0.078900
      2 C02          2.0670     1.0750     0.0110 cc         1 JNY       0.107400
      3 C03          0.7400     1.4110    -0.0150 cd         1 JNY      -0.244000
      4 C04         -0.2250     0.3950    -0.0090 cd         1 JNY      -0.043200
      5 C05          0.1460    -0.9280     0.0210 cc         1 JNY      -0.071900
      6 C06         -0.7390    -2.0380     0.0240 cg         1 JNY       0.200500
      7 N07         -1.3930    -2.9870     0.0250 n1         1 JNY      -0.320800
      8 C08          1.5500    -1.3010     0.0510 c          1 JNY       0.707700
      9 O09          1.9590    -2.4480     0.0800 o          1 JNY      -0.592500
     10 N10          2.4150    -0.2260     0.0430 ns         1 JNY      -0.422100
     11 C11         -1.6640     0.8470    -0.0530 c3         1 JNY       0.718100
     12 F12         -1.9100     1.7080     0.9360 f          1 JNY      -0.222633
     13 F13         -1.9100     1.4760    -1.2040 f          1 JNY      -0.222633
     14 F14         -2.5360    -0.1490     0.0560 f          1 JNY      -0.222633
     15 H011         3.7930     1.9570     0.8940 hc         1 JNY       0.068033
     16 H012         3.8080     1.9330    -0.8670 hc         1 JNY       0.068033
     17 H013         2.7740     3.0830    -0.0100 hc         1 JNY       0.068033
     18 H031         0.4630     2.4540    -0.0410 ha         1 JNY       0.168000
     19 H101         3.4020    -0.4580     0.0640 hn         1 JNY       0.335500
@<TRIPOS>BOND
     1     1     2 1   
     2     1    15 1   
     3     1    16 1   
     4     1    17 1   
     5     2     3 2   
     6     2    10 1   
     7     3     4 1   
     8     3    18 1   
     9     4     5 2   
    10     4    11 1   
    11     5     6 1   
    12     5     8 1   
    13     6     7 3   
    14     8     9 2   
    15     8    10 1   
    16    10    19 1   
    17    11    12 1   
    18    11    13 1   
    19    11    14 1   
@<TRIPOS>SUBSTRUCTURE
     1 JNY         1 TEMP              0 ****  ****    0 ROOT
