@<TRIPOS>MOLECULE
JNZ
   17    18     1     0     0
SMALL
bcc


@<TRIPOS>ATOM
      1 C8          -2.1210     1.2480     0.0380 ca         1 JNZ      -0.181000
      2 C7          -2.5930    -0.0800    -0.0100 ca         1 JNZ      -0.081000
      3 C9          -0.7700     1.5160     0.0690 ca         1 JNZ      -0.042000
      4 C6          -1.7380    -1.1600    -0.0250 ca         1 JNZ      -0.164000
      5 C10          0.1200     0.4370     0.0480 ca         1 JNZ      -0.258900
      6 C5          -0.3650    -0.8830     0.0060 ca         1 JNZ      -0.009200
      7 C2           1.5420     0.2860     0.0680 cc         1 JNZ       0.548800
      8 N3           1.8740    -0.9790     0.0410 nd         1 JNZ      -0.582100
      9 N4           0.7190    -1.6830     0.0130 na         1 JNZ      -0.020100
     10 N1           2.4670     1.3020     0.1740 nv         1 JNZ      -0.850800
     11 H8          -2.8340     2.0610     0.0540 ha         1 JNZ       0.132000
     12 H7          -3.6610    -0.2540    -0.0320 ha         1 JNZ       0.129000
     13 H9          -0.4100     2.5370     0.1090 ha         1 JNZ       0.133000
     14 H6          -2.1110    -2.1750    -0.0590 ha         1 JNZ       0.137000
     15 HN4          0.7510    -2.6870    -0.0130 hn         1 JNZ       0.326700
     16 HN1          2.2270     2.1280    -0.3540 hn         1 JNZ       0.390300
     17 HN1A         3.4100     1.0120    -0.0380 hn         1 JNZ       0.390300
@<TRIPOS>BOND
     1     1     2 ar  
     2     1     3 ar  
     3     1    11 1   
     4     2     4 ar  
     5     2    12 1   
     6     3     5 ar  
     7     3    13 1   
     8     4     6 ar  
     9     4    14 1   
    10     5     6 ar  
    11     5     7 1   
    12     6     9 1   
    13     7     8 2   
    14     7    10 1   
    15     8     9 1   
    16     9    15 1   
    17    10    16 1   
    18    10    17 1   
@<TRIPOS>SUBSTRUCTURE
     1 JNZ         1 TEMP              0 ****  ****    0 ROOT
