@<TRIPOS>MOLECULE
JNZ
   17    18     1     0     0
SMALL
No Charge or Current Charge


@<TRIPOS>ATOM
      1 C8          -2.1200     1.2670     0.0240 ca         1 JNZ      -0.163000
      2 C7          -2.6150    -0.0610    -0.0140 ca         1 JNZ      -0.063000
      3 C9          -0.7300     1.5170     0.0570 ca         1 JNZ      -0.024000
      4 C6          -1.7220    -1.1560    -0.0200 ca         1 JNZ      -0.146000
      5 C10          0.1210     0.4030     0.0490 ca         1 JNZ      -0.258900
      6 C5          -0.3510    -0.8720     0.0130 ca         1 JNZ      -0.009200
      7 C2           1.5450     0.2560     0.0750 cc         1 JNZ       0.548800
      8 N3           1.9590    -1.0030     0.0560 nd         1 JNZ      -0.582100
      9 N4           0.7460    -1.7140     0.0190 na         1 JNZ      -0.070400
     10 N1           2.4210     1.2710     0.0980 nv         1 JNZ      -0.961200
     11 H8          -2.8180     2.1020     0.0300 ha         1 JNZ       0.114000
     12 H7          -3.6880    -0.2390    -0.0390 ha         1 JNZ       0.111000
     13 H9          -0.3410     2.5330     0.0890 ha         1 JNZ       0.115000
     14 H6          -2.0870    -2.1800    -0.0480 ha         1 JNZ       0.119000
     15 HN4          0.7190    -2.7340    -0.0030 hn         1 JNZ       0.377000
     16 HN1          2.0830     2.1860    -0.1730 hn         1 JNZ       0.445500
     17 HN1A         3.3840     1.0490    -0.1250 hn         1 JNZ       0.445500
@<TRIPOS>BOND
     1     1     2 ar  
     2     1     3 ar  
     3     1    11 1   
     4     2     4 ar  
     5     2    12 1   
     6     3     5 ar  
     7     3    13 1   
     8     4     6 ar  
     9     4    14 1   
    10     5     6 ar  
    11     5     7 1   
    12     6     9 1   
    13     7     8 2   
    14     7    10 1   
    15     8     9 1   
    16     9    15 1   
    17    10    16 1   
    18    10    17 1   
@<TRIPOS>SUBSTRUCTURE
     1 JNZ         1 TEMP              0 ****  ****    0 ROOT
