@<TRIPOS>MOLECULE
JO0
   37    40     1     0     0
SMALL
No Charge or Current Charge


@<TRIPOS>ATOM
      1 C10          2.1670     2.2890     5.0850 ca         1 JO0       0.355900
      2 C13          1.3770     5.3340     5.4690 ca         1 JO0      -0.122300
      3 C15          0.5790     5.9730     7.6860 ca         1 JO0       0.122000
      4 C17         -0.6250     6.4310     7.1270 ca         1 JO0      -0.095000
      5 C20          1.5920     2.9590     2.8720 c5         1 JO0       0.435000
      6 C02          2.5430     1.0980     6.9640 ca         1 JO0       0.280000
      7 C04          1.5370     0.0060     5.2020 ca         1 JO0       0.434900
      8 C06          0.8530    -2.4340     5.2990 cx         1 JO0       0.179500
      9 C07         -0.3320    -2.6550     6.2060 cx         1 JO0      -0.134400
     10 C08         -0.2790    -3.3270     4.8560 cx         1 JO0      -0.134400
     11 C09          1.6020     1.2090     4.4630 ca         1 JO0      -0.046000
     12 C14          1.5780     5.4280     6.8620 ca         1 JO0      -0.081000
     13 C18         -0.8320     6.3420     5.7400 ca         1 JO0      -0.105000
     14 C19          0.1660     5.7950     4.9140 ca         1 JO0      -0.102000
     15 N03          2.0120    -0.0450     6.4660 nb         1 JO0      -0.250000
     16 N05          0.9670    -1.1490     4.6630 nu         1 JO0      -0.903100
     17 N11          2.1800     3.3350     4.1860 nh         1 JO0      -0.789300
     18 N21          1.1980     1.5270     3.1400 nu         1 JO0      -0.856200
     19 N22          2.6570     2.2880     6.3330 nb         1 JO0      -0.235000
     20 Cl01         3.1540     1.0260     8.6090 cl         1 JO0      -0.148000
     21 Cl16         0.8370     6.0800     9.4220 cl         1 JO0      -0.207000
     22 H171        -1.3960     6.8520     7.7690 ha         1 JO0       0.131000
     23 H201         0.7150     3.5790     2.6370 h2         1 JO0       0.061200
     24 H1           2.3390     3.0290     2.0680 h2         1 JO0       0.061200
     25 H061         1.7990    -2.9080     5.5730 h1         1 JO0       0.093700
     26 H071        -0.1790    -3.2710     7.0880 hc         1 JO0       0.079700
     27 H072        -1.0320    -1.8340     6.3390 hc         1 JO0       0.079700
     28 H082        -0.9520    -2.9640     4.0830 hc         1 JO0       0.079700
     29 H081        -0.0910    -4.3980     4.8300 hc         1 JO0       0.079700
     30 H121         3.4280     4.7900     5.0810 h1         1 JO0       0.075700
     31 H122         2.5460     5.3550     3.6710 h1         1 JO0       0.075700
     32 H141         2.5040     5.0760     7.3090 ha         1 JO0       0.147000
     33 H181        -1.7640     6.6950     5.3050 ha         1 JO0       0.119000
     34 H191        -0.0030     5.7250     3.8420 ha         1 JO0       0.114000
     35 H051         0.5650    -0.9980     3.7380 hn         1 JO0       0.508000
     36 H2           1.3150     0.8160     2.4160 hn         1 JO0       0.420000
     37 C12          2.4550     4.7320     4.5720 c3         1 JO0       0.276100
@<TRIPOS>BOND
     1     1    11 ar  
     2     1    17 1   
     3     1    19 ar  
     4     2    12 ar  
     5     2    14 ar  
     6     2    37 1   
     7     3     4 ar  
     8     3    12 ar  
     9     3    21 1   
    10     4    13 ar  
    11     4    22 1   
    12     5    17 1   
    13     5    18 1   
    14     5    23 1   
    15     5    24 1   
    16     6    15 ar  
    17     6    19 ar  
    18     6    20 1   
    19     7    11 ar  
    20     7    15 ar  
    21     7    16 1   
    22     8     9 1   
    23     8    10 1   
    24     8    16 1   
    25     8    25 1   
    26     9    10 1   
    27     9    26 1   
    28     9    27 1   
    29    10    28 1   
    30    10    29 1   
    31    11    18 1   
    32    12    32 1   
    33    13    14 ar  
    34    13    33 1   
    35    14    34 1   
    36    16    35 1   
    37    17    37 1   
    38    18    36 1   
    39    30    37 1   
    40    31    37 1   
@<TRIPOS>SUBSTRUCTURE
     1 JO0         1 TEMP              0 ****  ****    0 ROOT
