@<TRIPOS>MOLECULE
JO0
   37    40     1     0     0
SMALL
abcg2


@<TRIPOS>ATOM
      1 C10          2.3020     2.1950     5.0190 ca         1 JO0       0.355900
      2 C13          1.3910     5.3470     5.3970 ca         1 JO0      -0.122300
      3 C15         -0.1000     5.4940     7.2740 ca         1 JO0       0.122000
      4 C17         -0.7400     6.5970     6.7220 ca         1 JO0      -0.095000
      5 C20          1.0710     3.0700     3.2970 c5         1 JO0       0.435000
      6 C02          2.9740     0.8700     6.6590 ca         1 JO0       0.280000
      7 C04          1.5610    -0.0640     5.1320 ca         1 JO0       0.434900
      8 C06          0.9240    -2.4320     5.3120 cx         1 JO0       0.179500
      9 C07          0.0530    -2.7140     6.5050 cx         1 JO0      -0.134400
     10 C08         -0.2780    -3.3110     5.1620 cx         1 JO0      -0.134400
     11 C09          1.5380     1.1640     4.4850 ca         1 JO0      -0.046000
     12 C14          0.9560     4.8660     6.6330 ca         1 JO0      -0.081000
     13 C18         -0.3000     7.0720     5.4920 ca         1 JO0      -0.105000
     14 C19          0.7560     6.4500     4.8330 ca         1 JO0      -0.102000
     15 N03          2.3170    -0.1890     6.2630 nb         1 JO0      -0.250000
     16 N05          0.8780    -1.1450     4.6900 nu         1 JO0      -0.903100
     17 N11          2.1900     3.3060     4.2330 nh         1 JO0      -0.789300
     18 N21          0.8510     1.6090     3.3220 nu         1 JO0      -0.856200
     19 N22          3.0430     2.0840     6.1310 nb         1 JO0      -0.235000
     20 CL01         3.9190     0.6590     8.1360 cl         1 JO0      -0.148000
     21 CL16        -0.6380     4.8840     8.8270 cl         1 JO0      -0.207000
     22 H171        -1.5610     7.0710     7.2420 ha         1 JO0       0.131000
     23 H201         0.1770     3.5950     3.6550 h2         1 JO0       0.061200
     24 H1           1.3120     3.4190     2.2940 h2         1 JO0       0.061200
     25 H061         1.8970    -2.9110     5.2930 h1         1 JO0       0.093700
     26 H071         0.4490    -3.3590     7.2780 hc         1 JO0       0.079700
     27 H072        -0.5680    -1.9000     6.8550 hc         1 JO0       0.079700
     28 H082        -1.1260    -2.9020     4.6270 hc         1 JO0       0.079700
     29 H081        -0.1100    -4.3680     5.0080 hc         1 JO0       0.079700
     30 H121         3.3960     4.5670     5.3220 h1         1 JO0       0.075700
     31 H122         2.8130     5.2340     3.7980 h1         1 JO0       0.075700
     32 H141         1.4370     4.0120     7.0890 ha         1 JO0       0.147000
     33 H181        -0.7890     7.9280     5.0470 ha         1 JO0       0.119000
     34 H191         1.0880     6.8220     3.8710 ha         1 JO0       0.114000
     35 H051         0.3640    -1.0500     3.8280 hn         1 JO0       0.508000
     36 H2           1.2090     1.1680     2.4800 hn         1 JO0       0.420000
     37 C12          2.5250     4.6500     4.6720 c3         1 JO0       0.276100
@<TRIPOS>BOND
     1     1    11 ar  
     2     1    17 1   
     3     1    19 ar  
     4     2    12 ar  
     5     2    14 ar  
     6     2    37 1   
     7     3     4 ar  
     8     3    12 ar  
     9     3    21 1   
    10     4    13 ar  
    11     4    22 1   
    12     5    17 1   
    13     5    18 1   
    14     5    23 1   
    15     5    24 1   
    16     6    15 ar  
    17     6    19 ar  
    18     6    20 1   
    19     7    11 ar  
    20     7    15 ar  
    21     7    16 1   
    22     8     9 1   
    23     8    10 1   
    24     8    16 1   
    25     8    25 1   
    26     9    10 1   
    27     9    26 1   
    28     9    27 1   
    29    10    28 1   
    30    10    29 1   
    31    11    18 1   
    32    12    32 1   
    33    13    14 ar  
    34    13    33 1   
    35    14    34 1   
    36    16    35 1   
    37    17    37 1   
    38    18    36 1   
    39    30    37 1   
    40    31    37 1   
@<TRIPOS>SUBSTRUCTURE
     1 JO0         1 TEMP              0 ****  ****    0 ROOT
