@<TRIPOS>MOLECULE
JO1
   26    27     1     0     0
SMALL
No Charge or Current Charge


@<TRIPOS>ATOM
      1 C10         -1.1480    -1.2530    -1.4700 c3         1 JO1       0.177300
      2 C13         -4.1370     0.6590    -0.1460 cc         1 JO1      -0.137000
      3 C01          3.7120    -0.9280     1.4820 c3         1 JO1       0.073900
      4 C03          2.1720     0.1380    -0.2660 cc         1 JO1      -0.219600
      5 C04          2.3000     1.3070    -0.9770 cd         1 JO1      -0.203000
      6 C05          3.5100     1.9100    -0.5860 cd         1 JO1       0.233900
      7 C07          1.0570    -0.8350    -0.3410 c          1 JO1       0.633700
      8 C11         -2.3020    -0.6630    -0.7100 cd         1 JO1      -0.247300
      9 C12         -3.1540     0.3340    -1.1110 cc         1 JO1      -0.125000
     10 C14         -4.0490    -0.0850     1.0020 cd         1 JO1      -0.242000
     11 N02          3.3270     0.1140     0.5170 na         1 JO1       0.174800
     12 N06          4.1550     1.2050     0.3220 nc         1 JO1      -0.514800
     13 N09          0.0700    -0.4870    -1.2320 ns         1 JO1      -0.486900
     14 O08          1.0050    -1.8600     0.3220 o          1 JO1      -0.612100
     15 S15         -2.7050    -1.2410     0.9190 ss         1 JO1       0.235000
     16 H102        -1.0010    -2.3010    -1.1760 h1         1 JO1       0.068700
     17 H101        -1.3710    -1.2370    -2.5460 h1         1 JO1       0.068700
     18 H131        -4.8850     1.4290    -0.3160 ha         1 JO1       0.133000
     19 H012         3.8030    -1.8890     0.9640 h1         1 JO1       0.066033
     20 H011         4.6720    -0.6750     1.9480 h1         1 JO1       0.066033
     21 H013         2.9430    -1.0050     2.2600 h1         1 JO1       0.066033
     22 H041         1.6120     1.7140    -1.7100 ha         1 JO1       0.142000
     23 H051         3.9360     2.8420    -0.9390 h4         1 JO1       0.041100
     24 H121        -3.0950     0.8390    -2.0720 ha         1 JO1       0.130000
     25 H141        -4.6720    -0.0360     1.8870 h4         1 JO1       0.151000
     26 H091         0.1940     0.3850    -1.7260 hn         1 JO1       0.326500
@<TRIPOS>BOND
     1     1     8 1   
     2     1    13 1   
     3     1    16 1   
     4     1    17 1   
     5     2     9 1   
     6     2    10 2   
     7     2    18 1   
     8     3    11 1   
     9     3    19 1   
    10     3    20 1   
    11     3    21 1   
    12     4     5 2   
    13     4     7 1   
    14     4    11 1   
    15     5     6 1   
    16     5    22 1   
    17     6    12 2   
    18     6    23 1   
    19     7    13 1   
    20     7    14 2   
    21     8     9 2   
    22     8    15 1   
    23     9    24 1   
    24    10    15 1   
    25    10    25 1   
    26    11    12 1   
    27    13    26 1   
@<TRIPOS>SUBSTRUCTURE
     1 JO1         1 TEMP              0 ****  ****    0 ROOT
