@<TRIPOS>MOLECULE
JO1
   26    27     1     0     0
SMALL
bcc


@<TRIPOS>ATOM
      1 C10         -1.1190    -0.7810    -1.7060 c3         1 JO1       0.177300
      2 C13         -4.2570     0.1350     0.1900 cc         1 JO1      -0.155000
      3 C01          3.0260    -0.7030     1.7700 c3         1 JO1       0.044600
      4 C03          2.3010     0.1710    -0.4990 cc         1 JO1      -0.168900
      5 C04          2.8380     1.1010    -1.3690 cd         1 JO1      -0.286300
      6 C05          4.0150     1.5200    -0.7470 cd         1 JO1       0.299200
      7 C07          1.0660    -0.6340    -0.6250 c          1 JO1       0.700700
      8 C11         -2.2150    -0.5020    -0.7240 cd         1 JO1      -0.102400
      9 C12         -3.4500     0.0110    -0.9800 cc         1 JO1      -0.143000
     10 C14         -3.6220    -0.2940     1.3150 cd         1 JO1      -0.115100
     11 N02          3.1480     0.0800     0.5540 na         1 JO1       0.153400
     12 N06          4.1890     0.8910     0.4100 nc         1 JO1      -0.514800
     13 N09          0.1220    -0.1040    -1.4000 ns         1 JO1      -0.553900
     14 O08          0.9380    -1.7180    -0.0500 o          1 JO1      -0.612100
     15 S15         -2.0390    -0.8630     0.9570 ss         1 JO1      -0.054800
     16 H102        -0.9290    -1.8530    -1.7610 h1         1 JO1       0.068700
     17 H101        -1.4450    -0.4590    -2.6930 h1         1 JO1       0.068700
     18 H131        -5.2650     0.5270     0.1870 ha         1 JO1       0.151000
     19 H012         3.2370    -1.7540     1.5850 h1         1 JO1       0.066033
     20 H011         3.7510    -0.3220     2.4820 h1         1 JO1       0.066033
     21 H013         2.0290    -0.6010     2.1870 h1         1 JO1       0.066033
     22 H041         2.4250     1.4380    -2.3060 ha         1 JO1       0.160000
     23 H051         4.7270     2.2570    -1.0860 h4         1 JO1       0.041100
     24 H121        -3.7660     0.3150    -1.9700 ha         1 JO1       0.148000
     25 H141        -3.9890    -0.3120     2.3310 h4         1 JO1       0.169000
     26 H091         0.2330     0.8370    -1.7540 hn         1 JO1       0.326500
@<TRIPOS>BOND
     1     1     8 1   
     2     1    13 1   
     3     1    16 1   
     4     1    17 1   
     5     2     9 1   
     6     2    10 2   
     7     2    18 1   
     8     3    11 1   
     9     3    19 1   
    10     3    20 1   
    11     3    21 1   
    12     4     5 2   
    13     4     7 1   
    14     4    11 1   
    15     5     6 1   
    16     5    22 1   
    17     6    12 2   
    18     6    23 1   
    19     7    13 1   
    20     7    14 2   
    21     8     9 2   
    22     8    15 1   
    23     9    24 1   
    24    10    15 1   
    25    10    25 1   
    26    11    12 1   
    27    13    26 1   
@<TRIPOS>SUBSTRUCTURE
     1 JO1         1 TEMP              0 ****  ****    0 ROOT
