@<TRIPOS>MOLECULE
JO2
   30    31     1     0     0
SMALL
No Charge or Current Charge


@<TRIPOS>ATOM
      1 C4           3.3500     0.6670     0.7600 c5         1 JO2      -0.185400
      2 C5          -1.9660     1.4480     0.5390 ca         1 JO2      -0.066600
      3 C6          -1.0750     0.4830    -0.0090 ca         1 JO2      -0.143600
      4 C11         -1.5680    -0.8090    -0.3180 ca         1 JO2      -0.043000
      5 C7           0.3700     0.8280    -0.3020 c          1 JO2       0.676700
      6 C8          -3.3170     1.1050     0.7470 ca         1 JO2      -0.106000
      7 C9          -3.7960    -0.1750     0.4340 ca         1 JO2      -0.063000
      8 C10         -2.9240    -1.1480    -0.0990 ca         1 JO2      -0.209200
      9 N1           4.5430    -1.1560     0.1040 ns         1 JO2      -0.492500
     10 N2           1.2650    -0.2240    -0.1940 ns         1 JO2      -0.473900
     11 C3           4.7120    -0.0310     0.8400 c          1 JO2       0.570000
     12 N3          -3.4320    -2.5190    -0.4390 no         1 JO2       0.700200
     13 C1           2.6920     0.0210    -0.5060 c5         1 JO2       0.034700
     14 C2           3.4190    -1.3430    -0.6290 c          1 JO2       0.549000
     15 O1           5.7870     0.3730     1.2500 o          1 JO2      -0.521000
     16 O2           3.1210    -2.3600    -1.2350 o          1 JO2      -0.496000
     17 O3           0.7200     1.9380    -0.6850 o          1 JO2      -0.590100
     18 O4          -2.6280    -3.3470    -0.8880 o          1 JO2      -0.427000
     19 O5          -4.6310    -2.7640    -0.2510 o          1 JO2      -0.427000
     20 O6          -0.6830     2.8950     1.8740 o          1 JO2      -0.695000
     21 O7          -2.0690     3.7970     0.4880 o          1 JO2      -0.695000
     22 H1           2.8020     0.3740     1.6630 hc         1 JO2       0.103200
     23 H2           3.4520     1.7570     0.7500 hc         1 JO2       0.103200
     24 H3          -0.9020    -1.5470    -0.7630 ha         1 JO2       0.144000
     25 H4          -4.0000     1.8390     1.1710 ha         1 JO2       0.147000
     26 H5          -4.8450    -0.4030     0.6130 ha         1 JO2       0.132000
     27 H6           5.2840    -1.8400     0.0620 hn         1 JO2       0.328500
     28 H7           0.8990    -1.1120     0.1280 hn         1 JO2       0.317500
     29 H8           2.8730     0.5940    -1.4270 h1         1 JO2       0.116700
     30 C12         -1.5030     2.8240     0.9680 c          1 JO2       0.713600
@<TRIPOS>BOND
     1     1    11 1   
     2     1    13 1   
     3     1    22 1   
     4     1    23 1   
     5     2     3 ar  
     6     2     6 ar  
     7     2    30 1   
     8     3     4 ar  
     9     3     5 1   
    10     4     8 ar  
    11     4    24 1   
    12     5    10 1   
    13     5    17 2   
    14     6     7 ar  
    15     6    25 1   
    16     7     8 ar  
    17     7    26 1   
    18     8    12 1   
    19     9    11 1   
    20     9    14 1   
    21     9    27 1   
    22    10    13 1   
    23    10    28 1   
    24    11    15 2   
    25    12    18 1   
    26    12    19 1   
    27    13    14 1   
    28    13    29 1   
    29    14    16 2   
    30    20    30 1   
    31    21    30 1   
@<TRIPOS>SUBSTRUCTURE
     1 JO2         1 TEMP              0 ****  ****    0 ROOT
