@<TRIPOS>MOLECULE
JO2
   30    31     1     0     0
SMALL
bcc


@<TRIPOS>ATOM
      1 C4           3.4160     0.9140     0.7710 c5         1 JO2      -0.185400
      2 C5          -1.8210     1.2180     0.5530 ca         1 JO2      -0.066600
      3 C6          -1.1270     0.2980    -0.2340 ca         1 JO2      -0.143600
      4 C11         -1.7340    -0.8790    -0.6460 ca         1 JO2      -0.061000
      5 C7           0.2670     0.5400    -0.7430 c          1 JO2       0.743700
      6 C8          -3.1420     0.9430     0.8940 ca         1 JO2      -0.124000
      7 C9          -3.7690    -0.2190     0.4840 ca         1 JO2      -0.081000
      8 C10         -3.0470    -1.1250    -0.2780 ca         1 JO2      -0.209200
      9 N1           4.5470    -1.0660     0.3000 ns         1 JO2      -0.626500
     10 N2           1.2230    -0.0340     0.0150 ns         1 JO2      -0.540900
     11 C3           4.7060     0.1490     0.9290 c          1 JO2       0.712500
     12 N3          -3.6780    -2.3650    -0.7030 no         1 JO2       0.320200
     13 C1           2.6170     0.1130    -0.2570 c5         1 JO2       0.034700
     14 C2           3.3370    -1.2290    -0.3250 c          1 JO2       0.691500
     15 O1           5.7050     0.4960     1.5060 o          1 JO2      -0.596500
     16 O2           2.9380    -2.2420    -0.8370 o          1 JO2      -0.571500
     17 O3           0.4730     1.0580    -1.8240 o          1 JO2      -0.590100
     18 O4          -3.0030    -3.1720    -1.2980 o          1 JO2      -0.237000
     19 O5          -4.8480    -2.5260    -0.4450 o          1 JO2      -0.237000
     20 O6           0.0440     2.6280     0.7030 o          1 JO2      -0.800300
     21 O7          -1.8120     3.2290     1.7900 o          1 JO2      -0.800300
     22 H1           2.9080     0.9440     1.7380 hc         1 JO2       0.103200
     23 H2           3.6090     1.9420     0.4690 hc         1 JO2       0.103200
     24 H3          -1.1860    -1.5920    -1.2470 ha         1 JO2       0.162000
     25 H4          -3.6850     1.6520     1.5020 ha         1 JO2       0.165000
     26 H5          -4.7930    -0.4120     0.7690 ha         1 JO2       0.150000
     27 H6           5.2590    -1.7850     0.3160 hn         1 JO2       0.328500
     28 H7           0.9590    -0.3710     0.9280 hn         1 JO2       0.317500
     29 H8           2.7220     0.5700    -1.2440 h1         1 JO2       0.116700
     30 C12         -1.1360     2.4870     1.0590 c          1 JO2       0.924200
@<TRIPOS>BOND
     1     1    11 1   
     2     1    13 1   
     3     1    22 1   
     4     1    23 1   
     5     2     3 ar  
     6     2     6 ar  
     7     2    30 1   
     8     3     4 ar  
     9     3     5 1   
    10     4     8 ar  
    11     4    24 1   
    12     5    10 1   
    13     5    17 2   
    14     6     7 ar  
    15     6    25 1   
    16     7     8 ar  
    17     7    26 1   
    18     8    12 1   
    19     9    11 1   
    20     9    14 1   
    21     9    27 1   
    22    10    13 1   
    23    10    28 1   
    24    11    15 2   
    25    12    18 1   
    26    12    19 1   
    27    13    14 1   
    28    13    29 1   
    29    14    16 2   
    30    20    30 1   
    31    21    30 1   
@<TRIPOS>SUBSTRUCTURE
     1 JO2         1 TEMP              0 ****  ****    0 ROOT
