@<TRIPOS>MOLECULE
JO3
   15    14     1     0     0
SMALL
No Charge or Current Charge


@<TRIPOS>ATOM
      1 OAN          2.5800    -0.0910     1.1780 o          1 JO3      -0.775000
      2 CAM          1.9040     0.2020     0.2020 c          1 JO3       0.710000
      3 OAO          2.2980     0.9580    -0.6750 o          1 JO3      -0.775000
      4 CAL          0.4860    -0.4140     0.0820 c3         1 JO3      -0.165700
      5 CAQ          0.3890    -1.3430    -1.1540 c3         1 JO3      -0.048100
      6 CAK         -0.6270     0.6850     0.1170 c3         1 JO3      -0.169400
      7 CAJ         -2.0350     0.0880     0.3400 c          1 JO3       0.703000
      8 OAP         -2.4010    -0.1190     1.4880 o          1 JO3      -0.781000
      9 OAG         -2.7250    -0.1650    -0.6350 o          1 JO3      -0.781000
     10 HAL          0.3400    -1.0480     0.9650 hc         1 JO3       0.041700
     11 HAQ1        -0.5590    -1.8920    -1.1610 hc         1 JO3       0.000700
     12 HAQ2         0.4630    -0.7690    -2.0860 hc         1 JO3       0.000700
     13 HAQ3         1.2010    -2.0800    -1.1410 hc         1 JO3       0.000700
     14 HAK1        -0.3650     1.3190     0.9730 hc         1 JO3       0.019200
     15 HAK2        -0.5790     1.2120    -0.8440 hc         1 JO3       0.019200
@<TRIPOS>BOND
     1     1     2 1   
     2     2     3 1   
     3     2     4 1   
     4     4     5 1   
     5     4     6 1   
     6     4    10 1   
     7     5    11 1   
     8     5    12 1   
     9     5    13 1   
    10     6     7 1   
    11     6    14 1   
    12     6    15 1   
    13     7     8 1   
    14     7     9 1   
@<TRIPOS>SUBSTRUCTURE
     1 JO3         1 TEMP              0 ****  ****    0 ROOT
