@<TRIPOS>MOLECULE
JO3
   15    14     1     0     0
SMALL
bcc


@<TRIPOS>ATOM
      1 OAN          2.8480    -0.5080     0.4040 o          1 JO3      -0.880300
      2 CAM          1.9040     0.2760     0.1610 c          1 JO3       0.920600
      3 OAO          2.0180     1.4970    -0.0720 o          1 JO3      -0.880300
      4 CAL          0.4910    -0.3460     0.1570 c3         1 JO3      -0.165700
      5 CAQ          0.4240    -1.4710    -0.8760 c3         1 JO3      -0.048100
      6 CAK         -0.6300     0.6640    -0.0550 c3         1 JO3      -0.169400
      7 CAJ         -2.0450     0.1020     0.1490 c          1 JO3       0.913600
      8 OAP         -2.2250    -0.6470     1.1350 o          1 JO3      -0.886300
      9 OAG         -2.9270     0.4620    -0.6600 o          1 JO3      -0.886300
     10 HAL          0.3440    -0.8020     1.1430 hc         1 JO3       0.041700
     11 HAQ1        -0.5320    -1.9950    -0.8370 hc         1 JO3       0.000700
     12 HAQ2         0.5420    -1.0800    -1.8900 hc         1 JO3       0.000700
     13 HAQ3         1.2100    -2.2070    -0.7110 hc         1 JO3       0.000700
     14 HAK1        -0.5020     1.4910     0.6530 hc         1 JO3       0.019200
     15 HAK2        -0.5500     1.1090    -1.0510 hc         1 JO3       0.019200
@<TRIPOS>BOND
     1     1     2 1   
     2     2     3 1   
     3     2     4 1   
     4     4     5 1   
     5     4     6 1   
     6     4    10 1   
     7     5    11 1   
     8     5    12 1   
     9     5    13 1   
    10     6     7 1   
    11     6    14 1   
    12     6    15 1   
    13     7     8 1   
    14     7     9 1   
@<TRIPOS>SUBSTRUCTURE
     1 JO3         1 TEMP              0 ****  ****    0 ROOT
