@<TRIPOS>MOLECULE
JO4
   25    26     1     0     0
SMALL
No Charge or Current Charge


@<TRIPOS>ATOM
      1 C10         -2.3440     0.8350    -0.8380 ca         1 JO4      -0.166000
      2 C13         -4.7310     0.0810     0.4450 ca         1 JO4      -0.085000
      3 C15          0.3070     0.1670     0.7930 ca         1 JO4      -0.148500
      4 O01          4.4060     1.2260     1.0320 o          1 JO4      -0.717000
      5 O03          4.9560    -0.3010    -0.3750 o          1 JO4      -0.717000
      6 C04          2.6610    -0.1130     0.1630 ca         1 JO4      -0.129600
      7 C05          2.2790    -1.1770    -0.6890 ca         1 JO4      -0.081500
      8 C06          0.9300    -1.5600    -0.7980 ca         1 JO4      -0.148500
      9 C07         -0.0580    -0.8840    -0.0680 ca         1 JO4       0.048100
     10 O08         -1.3690    -1.2900    -0.1830 os         1 JO4      -0.259200
     11 C09         -2.4290    -0.4110    -0.1850 ca         1 JO4       0.157100
     12 C11         -3.4470     1.7060    -0.8380 ca         1 JO4      -0.085000
     13 C12         -4.6390     1.3290    -0.1950 ca         1 JO4      -0.164000
     14 C14         -3.6270    -0.7900     0.4450 ca         1 JO4      -0.166000
     15 C16          1.6550     0.5520     0.9050 ca         1 JO4      -0.081500
     16 H101        -1.4270     1.1260    -1.3450 ha         1 JO4       0.129500
     17 H131        -5.6560    -0.2120     0.9380 ha         1 JO4       0.101500
     18 H151        -0.4480     0.6840     1.3800 ha         1 JO4       0.102000
     19 H051         3.0280    -1.7130    -1.2690 ha         1 JO4       0.132000
     20 H061         0.6520    -2.3810    -1.4540 ha         1 JO4       0.102000
     21 H111        -3.3800     2.6700    -1.3390 ha         1 JO4       0.101500
     22 H121        -5.4930     2.0020    -0.1960 ha         1 JO4       0.101000
     23 H141        -3.6950    -1.7570     0.9370 ha         1 JO4       0.129500
     24 H161         1.9160     1.3700     1.5740 ha         1 JO4       0.132000
     25 C02          4.1190     0.3020     0.2830 c          1 JO4       0.712600
@<TRIPOS>BOND
     1     1    11 ar  
     2     1    12 ar  
     3     1    16 1   
     4     2    13 ar  
     5     2    14 ar  
     6     2    17 1   
     7     3     9 ar  
     8     3    15 ar  
     9     3    18 1   
    10     4    25 1   
    11     5    25 1   
    12     6     7 ar  
    13     6    15 ar  
    14     6    25 1   
    15     7     8 ar  
    16     7    19 1   
    17     8     9 ar  
    18     8    20 1   
    19     9    10 1   
    20    10    11 1   
    21    11    14 ar  
    22    12    13 ar  
    23    12    21 1   
    24    13    22 1   
    25    14    23 1   
    26    15    24 1   
@<TRIPOS>SUBSTRUCTURE
     1 JO4         1 TEMP              0 ****  ****    0 ROOT
