@<TRIPOS>MOLECULE
JO4
   25    26     1     0     0
SMALL
abcg2


@<TRIPOS>ATOM
      1 C10         -2.1970     0.8080    -0.5980 ca         1 JO4      -0.166000
      2 C13         -4.7610     0.0070     0.1190 ca         1 JO4      -0.085000
      3 C15          0.4720     0.0780     1.2320 ca         1 JO4      -0.148500
      4 O01          4.4940     1.1360     0.8180 o          1 JO4      -0.717000
      5 O03          4.7140    -0.1910    -0.9600 o          1 JO4      -0.717000
      6 C04          2.6040    -0.0750     0.0910 ca         1 JO4      -0.129600
      7 C05          2.0300    -0.9660    -0.8120 ca         1 JO4      -0.081500
      8 C06          0.6950    -1.3320    -0.7100 ca         1 JO4      -0.148500
      9 C07         -0.0760    -0.8100     0.3170 ca         1 JO4       0.048100
     10 O08         -1.3790    -1.2230     0.4470 os         1 JO4      -0.259200
     11 C09         -2.3900    -0.3810     0.0980 ca         1 JO4       0.157100
     12 C11         -3.2990     1.5890    -0.9260 ca         1 JO4      -0.085000
     13 C12         -4.5820     1.1990    -0.5730 ca         1 JO4      -0.164000
     14 C14         -3.6740    -0.7820     0.4580 ca         1 JO4      -0.166000
     15 C16          1.8060     0.4380     1.1110 ca         1 JO4      -0.081500
     16 H101        -1.2070     1.1340    -0.8880 ha         1 JO4       0.129500
     17 H131        -5.7550    -0.3140     0.4010 ha         1 JO4       0.101500
     18 H151        -0.1350     0.4800     2.0340 ha         1 JO4       0.102000
     19 H051         2.6330    -1.3780    -1.6100 ha         1 JO4       0.132000
     20 H061         0.2560    -2.0260    -1.4170 ha         1 JO4       0.102000
     21 H111        -3.1420     2.5120    -1.4700 ha         1 JO4       0.101500
     22 H121        -5.4340     1.8140    -0.8330 ha         1 JO4       0.101000
     23 H141        -3.8140    -1.7100     0.9980 ha         1 JO4       0.129500
     24 H161         2.2380     1.1270     1.8240 ha         1 JO4       0.132000
     25 C02          4.0690     0.3260    -0.0280 c          1 JO4       0.712600
@<TRIPOS>BOND
     1     1    11 ar  
     2     1    12 ar  
     3     1    16 1   
     4     2    13 ar  
     5     2    14 ar  
     6     2    17 1   
     7     3     9 ar  
     8     3    15 ar  
     9     3    18 1   
    10     4    25 1   
    11     5    25 1   
    12     6     7 ar  
    13     6    15 ar  
    14     6    25 1   
    15     7     8 ar  
    16     7    19 1   
    17     8     9 ar  
    18     8    20 1   
    19     9    10 1   
    20    10    11 1   
    21    11    14 ar  
    22    12    13 ar  
    23    12    21 1   
    24    13    22 1   
    25    14    23 1   
    26    15    24 1   
@<TRIPOS>SUBSTRUCTURE
     1 JO4         1 TEMP              0 ****  ****    0 ROOT
