@<TRIPOS>MOLECULE
JO5
   28    30     1     0     0
SMALL
No Charge or Current Charge


@<TRIPOS>ATOM
      1 C4           4.3230    -0.5180    -0.1610 ca         1 JO5      -0.187000
      2 C5           3.9160    -1.8060     0.2670 ca         1 JO5      -0.042000
      3 C6           2.5500    -2.0880     0.4820 ca         1 JO5      -0.102000
      4 C11         -3.7890     0.1710    -0.9260 c          1 JO5       0.579000
      5 C7           1.6250    -1.0570     0.2600 ca         1 JO5      -0.081600
      6 C8           0.1390    -1.0550     0.4030 c          1 JO5       0.584600
      7 C9          -1.6570     0.7430     0.0850 c5         1 JO5       0.030700
      8 C10         -2.3140     0.3780    -1.2880 c5         1 JO5      -0.184400
      9 C12         -2.6290     0.1300     1.1260 c          1 JO5       0.567000
     10 N2          -0.2490     0.2400     0.0460 n          1 JO5      -0.383400
     11 C3           3.3780     0.5010    -0.3790 ca         1 JO5       0.413000
     12 N3          -3.7640    -0.0570     0.4090 ns         1 JO5      -0.474500
     13 C1           0.8290     1.0610    -0.2930 c          1 JO5       0.614600
     14 C2           2.0350     0.2050    -0.1600 ca         1 JO5      -0.268600
     15 O2          -0.5820    -1.9880     0.7270 o          1 JO5      -0.487000
     16 O3          -4.7990     0.3750    -1.5770 o          1 JO5      -0.497000
     17 O4          -2.4940    -0.0890     2.3190 o          1 JO5      -0.486000
     18 H1           5.3780    -0.3200    -0.3240 ha         1 JO5       0.119000
     19 H2           4.6600    -2.5830     0.4300 ha         1 JO5       0.121000
     20 H3           2.2260    -3.0730     0.8100 ha         1 JO5       0.141000
     21 H4          -1.6910     1.8290     0.2500 h1         1 JO5       0.109700
     22 H5          -1.9430    -0.5940    -1.6330 hc         1 JO5       0.095700
     23 H6          -2.1900     1.1080    -2.0950 hc         1 JO5       0.095700
     24 H7           4.7530     1.9970    -0.7280 hn         1 JO5       0.497500
     25 H8           3.0870     2.4920    -0.7960 hn         1 JO5       0.497500
     26 H9          -4.6200    -0.2910     0.8890 hn         1 JO5       0.345500
     27 N1           3.7710     1.7360    -0.7940 nv         1 JO5      -1.101000
     28 O1           0.7770     2.2380    -0.6170 o          1 JO5      -0.517000
@<TRIPOS>BOND
     1     1     2 ar  
     2     1    11 ar  
     3     1    18 1   
     4     2     3 ar  
     5     2    19 1   
     6     3     5 ar  
     7     3    20 1   
     8     4     8 1   
     9     4    12 1   
    10     4    16 2   
    11     5     6 1   
    12     5    14 ar  
    13     6    10 1   
    14     6    15 2   
    15     7     8 1   
    16     7     9 1   
    17     7    10 1   
    18     7    21 1   
    19     8    22 1   
    20     8    23 1   
    21     9    12 1   
    22     9    17 2   
    23    10    13 1   
    24    11    14 ar  
    25    11    27 1   
    26    12    26 1   
    27    13    14 1   
    28    13    28 2   
    29    24    27 1   
    30    25    27 1   
@<TRIPOS>SUBSTRUCTURE
     1 JO5         1 TEMP              0 ****  ****    0 ROOT
