@<TRIPOS>MOLECULE
JO5
   28    30     1     0     0
SMALL
abcg2


@<TRIPOS>ATOM
      1 C4           4.2480    -0.5650     0.0010 ca         1 JO5      -0.187000
      2 C5           3.7650    -1.8310     0.2520 ca         1 JO5      -0.042000
      3 C6           2.3900    -2.1050     0.3160 ca         1 JO5      -0.102000
      4 C11         -3.7720    -0.1050    -0.7400 c          1 JO5       0.579000
      5 C7           1.5560    -1.0380     0.1150 ca         1 JO5      -0.081600
      6 C8           0.0770    -0.9870     0.1240 c          1 JO5       0.584600
      7 C9          -1.6130     0.7910    -0.1910 c5         1 JO5       0.030700
      8 C10         -2.4540     0.2830    -1.3610 c5         1 JO5      -0.184400
      9 C12         -2.4000     0.3850     1.0530 c          1 JO5       0.567000
     10 N2          -0.2600     0.3300    -0.1290 n          1 JO5      -0.383400
     11 C3           3.3850     0.5400    -0.2110 ca         1 JO5       0.413000
     12 N3          -3.6350    -0.0210     0.6280 ns         1 JO5      -0.474500
     13 C1           0.8680     1.1370    -0.2950 c          1 JO5       0.614600
     14 C2           2.0210     0.2510    -0.1410 ca         1 JO5      -0.268600
     15 O2          -0.7220    -1.8710     0.3100 o          1 JO5      -0.487000
     16 O3          -4.7790    -0.4450    -1.3070 o          1 JO5      -0.497000
     17 O4          -2.0210     0.4460     2.1930 o          1 JO5      -0.486000
     18 H1           5.3190    -0.4040    -0.0380 ha         1 JO5       0.119000
     19 H2           4.4750    -2.6330     0.4060 ha         1 JO5       0.121000
     20 H3           2.0200    -3.1010     0.5150 ha         1 JO5       0.141000
     21 H4          -1.5850     1.8840    -0.1990 h1         1 JO5       0.109700
     22 H5          -2.0210    -0.5960    -1.8420 hc         1 JO5       0.095700
     23 H6          -2.6030     1.0360    -2.1340 hc         1 JO5       0.095700
     24 H7           4.8590     1.9390    -0.3680 hn         1 JO5       0.497500
     25 H8           3.2730     2.5670    -0.4910 hn         1 JO5       0.497500
     26 H9          -4.3720    -0.2890     1.2680 hn         1 JO5       0.345500
     27 N1           3.8760     1.7630    -0.4840 nv         1 JO5      -1.101000
     28 O1           0.8310     2.3240    -0.5180 o          1 JO5      -0.517000
@<TRIPOS>BOND
     1     1     2 ar  
     2     1    11 ar  
     3     1    18 1   
     4     2     3 ar  
     5     2    19 1   
     6     3     5 ar  
     7     3    20 1   
     8     4     8 1   
     9     4    12 1   
    10     4    16 2   
    11     5     6 1   
    12     5    14 ar  
    13     6    10 1   
    14     6    15 2   
    15     7     8 1   
    16     7     9 1   
    17     7    10 1   
    18     7    21 1   
    19     8    22 1   
    20     8    23 1   
    21     9    12 1   
    22     9    17 2   
    23    10    13 1   
    24    11    14 ar  
    25    11    27 1   
    26    12    26 1   
    27    13    14 1   
    28    13    28 2   
    29    24    27 1   
    30    25    27 1   
@<TRIPOS>SUBSTRUCTURE
     1 JO5         1 TEMP              0 ****  ****    0 ROOT
