@<TRIPOS>MOLECULE
JO6
   35    38     1     0     0
SMALL
No Charge or Current Charge


@<TRIPOS>ATOM
      1 C11         31.1420   -48.4680   -10.4370 cc         1 JO6       0.406200
      2 C13         32.4510   -48.9120    -8.7270 ca         1 JO6       0.101400
      3 C15         33.6040   -48.9370    -7.9270 ca         1 JO6      -0.049000
      4 C16         31.2310   -50.1990    -7.0570 ca         1 JO6      -0.062000
      5 C17         33.5660   -49.5980    -6.6850 ca         1 JO6       0.116000
      6 C18         30.7050   -47.9070   -11.7630 c3         1 JO6      -0.095700
      7 C19         30.1930   -46.4490   -11.6670 c3         1 JO6      -0.071700
      8 C20         32.3830   -50.2280    -6.2480 ca         1 JO6      -0.096000
      9 C1          27.6810   -44.6440   -16.6590 cc         1 JO6      -0.064000
     10 C2          29.0030   -44.1120   -16.8890 cc         1 JO6       0.055000
     11 C3          30.0490   -44.2420   -15.9680 cd         1 JO6      -0.012300
     12 C4          27.3770   -45.3250   -15.5050 cd         1 JO6       0.122000
     13 C5          28.4490   -45.4650   -14.5760 cd         1 JO6      -0.052000
     14 N6          29.7010   -44.9540   -14.8050 na         1 JO6       0.288400
     15 N7          30.5710   -45.2170   -13.7910 nd         1 JO6      -0.589100
     16 C8          29.7520   -45.8870   -12.9900 cc         1 JO6       0.531300
     17 N9          28.4560   -46.0700   -13.4080 nc         1 JO6      -0.382300
     18 N10         32.3850   -48.2880    -9.9670 nd         1 JO6      -0.538100
     19 S12         29.9820   -49.3790    -9.4430 ss         1 JO6       0.028800
     20 C14         31.2970   -49.5330    -8.2910 ca         1 JO6      -0.186000
     21 Cl21        35.0030   -49.6380    -5.6700 cl         1 JO6      -0.196000
     22 Cl24        25.8100   -45.9940   -15.1650 cl         1 JO6      -0.130000
     23 H26         34.5160   -48.4510    -8.2630 ha         1 JO6       0.147000
     24 H27         30.3110   -50.6820    -6.7310 ha         1 JO6       0.129000
     25 H28         31.5430   -47.9500   -12.4690 hc         1 JO6       0.074700
     26 H29         29.9160   -48.5420   -12.1830 hc         1 JO6       0.074700
     27 H30         30.9850   -45.8140   -11.2530 hc         1 JO6       0.079700
     28 H31         29.3590   -46.4010   -10.9580 hc         1 JO6       0.079700
     29 H32         32.3610   -50.7370    -5.2870 ha         1 JO6       0.132000
     30 H34         31.8760   -43.3350   -15.2100 hc         1 JO6       0.072033
     31 H35         32.1250   -44.4940   -16.5260 hc         1 JO6       0.072033
     32 H33         31.4950   -42.8740   -16.8610 hc         1 JO6       0.072033
     33 H25         26.9210   -44.5000   -17.4190 ha         1 JO6       0.153000
     34 Cl23        29.2330   -43.2870   -18.4050 cl         1 JO6      -0.161000
     35 C22         31.4580   -43.7080   -16.1520 c3         1 JO6      -0.050800
@<TRIPOS>BOND
     1     1     6 1   
     2     1    18 2   
     3     1    19 1   
     4     2     3 ar  
     5     2    18 1   
     6     2    20 ar  
     7     3     5 ar  
     8     3    23 1   
     9     4     8 ar  
    10     4    20 ar  
    11     4    24 1   
    12     5     8 ar  
    13     5    21 1   
    14     6     7 1   
    15     6    25 1   
    16     6    26 1   
    17     7    16 1   
    18     7    27 1   
    19     7    28 1   
    20     8    29 1   
    21     9    10 1   
    22     9    12 2   
    23     9    33 1   
    24    10    11 2   
    25    10    34 1   
    26    11    14 1   
    27    11    35 1   
    28    12    13 1   
    29    12    22 1   
    30    13    14 1   
    31    13    17 2   
    32    14    15 1   
    33    15    16 2   
    34    16    17 1   
    35    19    20 1   
    36    30    35 1   
    37    31    35 1   
    38    32    35 1   
@<TRIPOS>SUBSTRUCTURE
     1 JO6         1 TEMP              0 ****  ****    0 ROOT
