@<TRIPOS>MOLECULE
JO6
   35    38     1     0     0
SMALL
bcc


@<TRIPOS>ATOM
      1 C11         30.8480   -48.5060   -10.3610 cc         1 JO6       0.406200
      2 C13         32.0520   -48.6630    -8.5290 ca         1 JO6       0.101400
      3 C15         32.9270   -48.2610    -7.5220 ca         1 JO6      -0.067000
      4 C16         31.8240   -50.8610    -7.5070 ca         1 JO6      -0.080000
      5 C17         33.2290   -49.1690    -6.5280 ca         1 JO6       0.024400
      6 C18         30.2390   -47.9380   -11.5990 c3         1 JO6      -0.095700
      7 C19         30.6340   -46.4820   -11.8260 c3         1 JO6      -0.071700
      8 C20         32.6920   -50.4590    -6.5100 ca         1 JO6      -0.114000
      9 C1          27.6760   -44.4100   -16.4540 cc         1 JO6      -0.082000
     10 C2          28.9860   -44.0460   -16.8400 cc         1 JO6      -0.036600
     11 C3          30.0800   -44.3240   -16.0650 cd         1 JO6       0.038400
     12 C4          27.4680   -45.0620   -15.2780 cd         1 JO6       0.030400
     13 C5          28.5730   -45.3630   -14.4620 cd         1 JO6      -0.001300
     14 N6          29.8100   -44.9790   -14.9000 na         1 JO6       0.187000
     15 N7          30.7310   -45.3460   -14.0010 nd         1 JO6      -0.589100
     16 C8          30.0110   -45.9290   -13.0590 cc         1 JO6       0.531300
     17 N9          28.6880   -45.9670   -13.2950 nc         1 JO6      -0.382300
     18 N10         31.6560   -47.8780    -9.5850 nd         1 JO6      -0.538100
     19 S12         30.4710   -50.1490    -9.8830 ss         1 JO6      -0.098100
     20 C14         31.5080   -49.9560    -8.5130 ca         1 JO6      -0.059100
     21 CL21        34.3090   -48.7010    -5.2560 cl         1 JO6      -0.104400
     22 CL24        25.9080   -45.5330   -14.7520 cl         1 JO6      -0.038400
     23 H26         33.3500   -47.2650    -7.5310 ha         1 JO6       0.165000
     24 H27         31.4070   -51.8590    -7.4950 ha         1 JO6       0.147000
     25 H28         30.5450   -48.5500   -12.4530 hc         1 JO6       0.074700
     26 H29         29.1530   -48.0310   -11.5370 hc         1 JO6       0.074700
     27 H30         31.7160   -46.3850   -11.9010 hc         1 JO6       0.079700
     28 H31         30.3180   -45.8790   -10.9720 hc         1 JO6       0.079700
     29 H32         32.9540   -51.1440    -5.7150 ha         1 JO6       0.150000
     30 H34         31.9070   -43.3580   -15.5610 hc         1 JO6       0.072033
     31 H35         32.1020   -44.9030   -16.3750 hc         1 JO6       0.072033
     32 H33         31.6040   -43.4800   -17.2970 hc         1 JO6       0.072033
     33 H25         26.8440   -44.1650   -17.1000 ha         1 JO6       0.171000
     34 CL23        29.1720   -43.2250   -18.3460 cl         1 JO6      -0.069400
     35 C22         31.4990   -43.9950   -16.3470 c3         1 JO6      -0.050800
@<TRIPOS>BOND
     1     1     6 1   
     2     1    18 2   
     3     1    19 1   
     4     2     3 ar  
     5     2    18 1   
     6     2    20 ar  
     7     3     5 ar  
     8     3    23 1   
     9     4     8 ar  
    10     4    20 ar  
    11     4    24 1   
    12     5     8 ar  
    13     5    21 1   
    14     6     7 1   
    15     6    25 1   
    16     6    26 1   
    17     7    16 1   
    18     7    27 1   
    19     7    28 1   
    20     8    29 1   
    21     9    10 1   
    22     9    12 2   
    23     9    33 1   
    24    10    11 2   
    25    10    34 1   
    26    11    14 1   
    27    11    35 1   
    28    12    13 1   
    29    12    22 1   
    30    13    14 1   
    31    13    17 2   
    32    14    15 1   
    33    15    16 2   
    34    16    17 1   
    35    19    20 1   
    36    30    35 1   
    37    31    35 1   
    38    32    35 1   
@<TRIPOS>SUBSTRUCTURE
     1 JO6         1 TEMP              0 ****  ****    0 ROOT
