@<TRIPOS>MOLECULE
JO7
   35    36     1     0     0
SMALL
No Charge or Current Charge


@<TRIPOS>ATOM
      1 C01         -0.0770     3.6070     0.3000 c3         1 JO7       0.137900
      2 O02          0.5240     2.4900    -0.3830 os         1 JO7      -0.462000
      3 C03          1.0620     1.4100     0.4240 c6         1 JO7       0.150300
      4 C04         -0.0550     0.6400     1.2190 c6         1 JO7       0.190800
      5 N05         -0.7830    -0.4120     0.4320 n3         1 JO7      -0.760500
      6 C06          0.0590    -1.2440    -0.4790 c6         1 JO7       0.231500
      7 C07          0.9700    -2.2560     0.2830 c6         1 JO7      -0.065400
      8 C08          2.1620    -1.6150     1.0590 c6         1 JO7      -0.108400
      9 C09          2.8810    -0.4810     0.2700 c6         1 JO7       0.177300
     10 O10          3.8050    -1.0660    -0.6560 oh         1 JO7      -0.661000
     11 C11          1.9010     0.4700    -0.4980 c6         1 JO7      -0.049700
     12 C12          0.9400    -0.3550    -1.3880 c6         1 JO7      -0.089400
     13 S13         -2.4210    -0.1150    -0.0260 s6         1 JO7       1.219100
     14 O14         -3.0220    -1.4290    -0.2800 o          1 JO7      -0.541500
     15 O15         -3.0040     0.7350     1.0180 o          1 JO7      -0.541500
     16 C16         -2.3500     0.8170    -1.5440 c3         1 JO7      -0.372100
     17 H012        -0.3260     4.3990    -0.4180 h1         1 JO7       0.034033
     18 H013        -1.0040     3.3150     0.8070 h1         1 JO7       0.034033
     19 H011         0.6130     4.0280     1.0430 h1         1 JO7       0.034033
     20 H031         1.7450     1.8670     1.1550 h1         1 JO7       0.044700
     21 H041         0.4010     0.1840     2.1030 h1         1 JO7       0.067700
     22 H042        -0.7490     1.3670     1.6560 h1         1 JO7       0.067700
     23 H061        -0.5910    -1.8490    -1.1300 h1         1 JO7       0.076700
     24 H072         0.3600    -2.8560     0.9710 hc         1 JO7       0.055700
     25 H071         1.3760    -2.9670    -0.4490 hc         1 JO7       0.055700
     26 H082         1.8320    -1.2480     2.0350 hc         1 JO7       0.044700
     27 H081         2.8850    -2.4030     1.3120 hc         1 JO7       0.044700
     28 H091         3.4500     0.1250     0.9910 h1         1 JO7       0.029700
     29 H101         4.4500    -1.5800    -0.1240 ho         1 JO7       0.444000
     30 H111         2.5110     1.1120    -1.1480 hc         1 JO7       0.080700
     31 H121         1.5040    -0.9800    -2.0940 hc         1 JO7       0.063200
     32 H122         0.3270     0.3120    -2.0050 hc         1 JO7       0.063200
     33 H163        -3.3770     1.0940    -1.8010 h1         1 JO7       0.101033
     34 H161        -1.7360     1.7030    -1.3630 h1         1 JO7       0.101033
     35 H162        -1.9170     0.1720    -2.3130 h1         1 JO7       0.101033
@<TRIPOS>BOND
     1     1     2 1   
     2     1    17 1   
     3     1    18 1   
     4     1    19 1   
     5     2     3 1   
     6     3     4 1   
     7     3    11 1   
     8     3    20 1   
     9     4     5 1   
    10     4    21 1   
    11     4    22 1   
    12     5     6 1   
    13     5    13 1   
    14     6     7 1   
    15     6    12 1   
    16     6    23 1   
    17     7     8 1   
    18     7    24 1   
    19     7    25 1   
    20     8     9 1   
    21     8    26 1   
    22     8    27 1   
    23     9    10 1   
    24     9    11 1   
    25     9    28 1   
    26    10    29 1   
    27    11    12 1   
    28    11    30 1   
    29    12    31 1   
    30    12    32 1   
    31    13    14 2   
    32    13    15 2   
    33    13    16 1   
    34    16    33 1   
    35    16    34 1   
    36    16    35 1   
@<TRIPOS>SUBSTRUCTURE
     1 JO7         1 TEMP              0 ****  ****    0 ROOT
