@<TRIPOS>MOLECULE
JO7
   35    36     1     0     0
SMALL
bcc


@<TRIPOS>ATOM
      1 C01          0.1200     3.5630     0.2200 c3         1 JO7       0.114700
      2 O02          0.4800     2.3720    -0.4350 os         1 JO7      -0.415600
      3 C03          1.0270     1.3860     0.4200 c6         1 JO7       0.127100
      4 C04         -0.0780     0.6320     1.1590 c6         1 JO7       0.190800
      5 N05         -0.7370    -0.3890     0.3440 n3         1 JO7      -0.760500
      6 C06          0.1060    -1.2190    -0.5390 c6         1 JO7       0.231500
      7 C07          0.9580    -2.2130     0.2520 c6         1 JO7      -0.065400
      8 C08          2.0730    -1.5670     1.0770 c6         1 JO7      -0.108400
      9 C09          2.8160    -0.4440     0.3490 c6         1 JO7       0.154100
     10 O10          3.7400    -0.9670    -0.5900 oh         1 JO7      -0.598800
     11 C11          1.8970     0.4820    -0.4570 c6         1 JO7      -0.049700
     12 C12          1.0050    -0.3330    -1.3890 c6         1 JO7      -0.089400
     13 S13         -2.3320    -0.2410    -0.0070 s6         1 JO7       1.249900
     14 O14         -2.8200    -1.5560    -0.4060 o          1 JO7      -0.612300
     15 O15         -2.9720     0.4260     1.1190 o          1 JO7      -0.612300
     16 C16         -2.4790     0.8290    -1.4230 c3         1 JO7      -0.261300
     17 H012        -0.2740     4.2470    -0.5310 h1         1 JO7       0.034033
     18 H013        -0.6540     3.4180     0.9810 h1         1 JO7       0.034033
     19 H011         0.9820     4.0360     0.7040 h1         1 JO7       0.034033
     20 H031         1.6580     1.8640     1.1840 h1         1 JO7       0.044700
     21 H041         0.3290     0.1630     2.0530 h1         1 JO7       0.067700
     22 H042        -0.8180     1.3370     1.5340 h1         1 JO7       0.067700
     23 H061        -0.5600    -1.7950    -1.1800 h1         1 JO7       0.076700
     24 H072         0.3170    -2.8210     0.8940 hc         1 JO7       0.055700
     25 H071         1.4010    -2.8940    -0.4790 hc         1 JO7       0.055700
     26 H082         1.6840    -1.1930     2.0240 hc         1 JO7       0.044700
     27 H081         2.7970    -2.3360     1.3670 hc         1 JO7       0.044700
     28 H091         3.3480     0.1590     1.1000 h1         1 JO7       0.029700
     29 H101         4.3120    -1.5900    -0.1310 ho         1 JO7       0.405000
     30 H111         2.5470     1.1450    -1.0350 hc         1 JO7       0.080700
     31 H121         1.6050    -0.9560    -2.0540 hc         1 JO7       0.063200
     32 H122         0.4150     0.3260    -2.0300 hc         1 JO7       0.063200
     33 H163        -3.5360     0.9220    -1.6670 h1         1 JO7       0.101033
     34 H161        -2.0630     1.8040    -1.1850 h1         1 JO7       0.101033
     35 H162        -1.9460     0.3940    -2.2650 h1         1 JO7       0.101033
@<TRIPOS>BOND
     1     1     2 1   
     2     1    17 1   
     3     1    18 1   
     4     1    19 1   
     5     2     3 1   
     6     3     4 1   
     7     3    11 1   
     8     3    20 1   
     9     4     5 1   
    10     4    21 1   
    11     4    22 1   
    12     5     6 1   
    13     5    13 1   
    14     6     7 1   
    15     6    12 1   
    16     6    23 1   
    17     7     8 1   
    18     7    24 1   
    19     7    25 1   
    20     8     9 1   
    21     8    26 1   
    22     8    27 1   
    23     9    10 1   
    24     9    11 1   
    25     9    28 1   
    26    10    29 1   
    27    11    12 1   
    28    11    30 1   
    29    12    31 1   
    30    12    32 1   
    31    13    14 2   
    32    13    15 2   
    33    13    16 1   
    34    16    33 1   
    35    16    34 1   
    36    16    35 1   
@<TRIPOS>SUBSTRUCTURE
     1 JO7         1 TEMP              0 ****  ****    0 ROOT
