@<TRIPOS>MOLECULE
JO8
   30    31     1     0     0
SMALL
bcc


@<TRIPOS>ATOM
      1 O2          -5.2190     1.1950    -1.0770 o          1 JO8      -0.601500
      2 C4          -4.2110     0.6980    -0.6450 c          1 JO8       0.713500
      3 N2          -4.1150    -0.5890    -0.1640 ns         1 JO8      -0.624500
      4 C5          -2.8730    -0.9260     0.3040 c          1 JO8       0.685500
      5 O3          -2.5260    -2.0220     0.6650 o          1 JO8      -0.581500
      6 C3          -2.8390     1.3200    -0.5540 c5         1 JO8      -0.178400
      7 C2          -2.0320     0.3460     0.3010 c5         1 JO8       0.041700
      8 N1          -0.6910     0.1130    -0.1310 ns         1 JO8      -0.549900
      9 C1           0.3480    -0.0010     0.7220 c          1 JO8       0.747700
     10 O1           0.2210     0.0260     1.9360 o          1 JO8      -0.610100
     11 C6           1.6470    -0.3750     0.0680 ca         1 JO8      -0.188600
     12 C11          2.6590     0.5590    -0.1600 ca         1 JO8      -0.069600
     13 C12          2.4210     2.0410     0.1060 c          1 JO8       0.922200
     14 O4           3.4020     2.7980    -0.0060 o          1 JO8      -0.816300
     15 O5           1.2550     2.3640     0.4030 o          1 JO8      -0.816300
     16 C7           1.8500    -1.7380    -0.2110 ca         1 JO8       0.157600
     17 N3           0.8510    -2.6780    -0.0620 nv         1 JO8      -0.851200
     18 C8           3.0950    -2.1360    -0.7150 ca         1 JO8      -0.230000
     19 C9           4.0950    -1.2070    -0.9360 ca         1 JO8      -0.108000
     20 C10          3.8830     0.1370    -0.6660 ca         1 JO8      -0.151000
     21 H1          -4.8910    -1.2390    -0.1870 hn         1 JO8       0.326500
     22 H2          -2.4360     1.4000    -1.5670 hc         1 JO8       0.095200
     23 H3          -2.8920     2.3260    -0.1430 hc         1 JO8       0.095200
     24 H4          -2.0030     0.6960     1.3360 h1         1 JO8       0.118700
     25 H5          -0.5110     0.0560    -1.1200 hn         1 JO8       0.322500
     26 H7           0.0760    -2.4650     0.5430 hn         1 JO8       0.394800
     27 H8           1.1640    -3.6290     0.0470 hn         1 JO8       0.394800
     28 H9           3.2690    -3.1830    -0.9320 ha         1 JO8       0.106000
     29 H10          5.0480    -1.5400    -1.3260 ha         1 JO8       0.105000
     30 H11          4.6630     0.8630    -0.8450 ha         1 JO8       0.151000
@<TRIPOS>BOND
     1     1     2 2   
     2     2     3 1   
     3     2     6 1   
     4     3     4 1   
     5     3    21 1   
     6     4     5 2   
     7     4     7 1   
     8     6     7 1   
     9     6    22 1   
    10     6    23 1   
    11     7     8 1   
    12     7    24 1   
    13     8     9 1   
    14     8    25 1   
    15     9    10 2   
    16     9    11 1   
    17    11    12 ar  
    18    11    16 ar  
    19    12    13 1   
    20    12    20 ar  
    21    13    14 1   
    22    13    15 1   
    23    16    17 1   
    24    16    18 ar  
    25    17    26 1   
    26    17    27 1   
    27    18    19 ar  
    28    18    28 1   
    29    19    20 ar  
    30    19    29 1   
    31    20    30 1   
@<TRIPOS>SUBSTRUCTURE
     1 JO8         1 TEMP              0 ****  ****    0 ROOT
