@<TRIPOS>MOLECULE
JO8
   30    31     1     0     0
SMALL
No Charge or Current Charge


@<TRIPOS>ATOM
      1 O2          -4.9710     1.8200    -0.5870 o          1 JO8      -0.526000
      2 C4          -4.0540     1.0200    -0.5060 c          1 JO8       0.571000
      3 N2          -4.2100    -0.3240    -0.4360 ns         1 JO8      -0.490500
      4 C5          -3.2130    -1.1150     0.0290 c          1 JO8       0.543000
      5 O3          -3.2140    -2.3360     0.0350 o          1 JO8      -0.506000
      6 C3          -2.5700     1.2340    -0.1830 c5         1 JO8      -0.178400
      7 C2          -2.1680    -0.0920     0.5460 c5         1 JO8       0.041700
      8 N1          -0.8290    -0.4840     0.0520 ns         1 JO8      -0.482900
      9 C1           0.2880     0.1240     0.5930 c          1 JO8       0.680700
     10 O1           0.2080     0.9330     1.5110 o          1 JO8      -0.610100
     11 C6           1.6130    -0.3180     0.0300 ca         1 JO8      -0.188600
     12 C11          2.6030     0.6600    -0.2800 ca         1 JO8      -0.069600
     13 C12          2.3330     2.1460    -0.1490 c          1 JO8       0.711600
     14 O4           3.1160     2.8180     0.5090 o          1 JO8      -0.711000
     15 O5           1.4180     2.6240    -0.8070 o          1 JO8      -0.711000
     16 C7           1.9090    -1.6860    -0.1800 ca         1 JO8       0.296000
     17 N3           1.0390    -2.6960     0.1390 nv         1 JO8      -1.100000
     18 C8           3.1560    -2.0690    -0.6930 ca         1 JO8      -0.212000
     19 C9           4.1310    -1.1090    -0.9910 ca         1 JO8      -0.090000
     20 C10          3.8560     0.2470    -0.7820 ca         1 JO8      -0.133000
     21 H1          -5.0970    -0.7360    -0.6870 hn         1 JO8       0.326500
     22 H2          -2.0540     1.3070    -1.1470 hc         1 JO8       0.095200
     23 H3          -2.4050     2.1620     0.3740 hc         1 JO8       0.095200
     24 H4          -2.2590    -0.0270     1.6400 h1         1 JO8       0.118700
     25 H5          -0.6610    -1.1750    -0.6720 hn         1 JO8       0.322500
     26 H7           0.2800    -2.5160     0.7940 hn         1 JO8       0.450000
     27 H8           1.3730    -3.6570     0.0940 hn         1 JO8       0.450000
     28 H9           3.3820    -3.1200    -0.8510 ha         1 JO8       0.088000
     29 H10          5.0980    -1.4160    -1.3840 ha         1 JO8       0.087000
     30 H11          4.6120     0.9910    -1.0270 ha         1 JO8       0.133000
@<TRIPOS>BOND
     1     1     2 2   
     2     2     3 1   
     3     2     6 1   
     4     3     4 1   
     5     3    21 1   
     6     4     5 2   
     7     4     7 1   
     8     6     7 1   
     9     6    22 1   
    10     6    23 1   
    11     7     8 1   
    12     7    24 1   
    13     8     9 1   
    14     8    25 1   
    15     9    10 2   
    16     9    11 1   
    17    11    12 ar  
    18    11    16 ar  
    19    12    13 1   
    20    12    20 ar  
    21    13    14 1   
    22    13    15 1   
    23    16    17 1   
    24    16    18 ar  
    25    17    26 1   
    26    17    27 1   
    27    18    19 ar  
    28    18    28 1   
    29    19    20 ar  
    30    19    29 1   
    31    20    30 1   
@<TRIPOS>SUBSTRUCTURE
     1 JO8         1 TEMP              0 ****  ****    0 ROOT
