@<TRIPOS>MOLECULE
JO9
   47    48     1     0     0
SMALL
bcc


@<TRIPOS>ATOM
      1 C7          12.9510    27.2130    30.0910 c          1 JO9       0.671100
      2 C8          13.4860    24.9030    29.6570 c3         1 JO9       0.102000
      3 C9          14.6170    23.9280    29.9610 c3         1 JO9      -0.092400
      4 C10         16.0320    24.5020    29.8500 c3         1 JO9      -0.066400
      5 C11         16.2390    25.8860    30.4720 c3         1 JO9      -0.066400
      6 C12         15.6110    26.0900    31.8460 c3         1 JO9      -0.092400
      7 C1          11.3160    28.9230    33.9950 c5         1 JO9       0.137100
      8 C2          11.8890    28.0150    35.0720 c3         1 JO9      -0.069600
      9 C3          12.3270    29.9680    33.4830 c5         1 JO9       0.025500
     10 C4          12.4420    31.2330    34.3700 c          1 JO9       0.948600
     11 C5          11.8060    29.0820    31.3530 c5         1 JO9       0.297600
     12 C6          13.1570    28.5030    30.8860 c3         1 JO9      -0.008300
     13 O2          12.3490    27.2890    29.0240 o          1 JO9      -0.638100
     14 N           11.8950    30.2770    32.1370 n7         1 JO9      -0.796200
     15 O           12.7560    31.0290    35.5590 o          1 JO9      -0.820300
     16 C13         14.0840    25.9050    31.8600 c3         1 JO9       0.102000
     17 C14         14.9780    30.0650    30.3160 c          1 JO9       0.666900
     18 N1          13.4740    26.0650    30.5500 n          1 JO9      -0.456800
     19 N2          13.8270    29.4430    30.0150 ns         1 JO9      -0.576900
     20 S           10.9760    27.9030    32.4770 ss         1 JO9      -0.480200
     21 H11         12.5300    24.3740    29.7190 h1         1 JO9       0.054700
     22 H14         14.4720    23.4780    30.9450 hc         1 JO9       0.044700
     23 H13         14.5130    23.1010    29.2550 hc         1 JO9       0.044700
     24 H16         16.7200    23.7890    30.3120 hc         1 JO9       0.034700
     25 H15         16.3190    24.5560    28.7970 hc         1 JO9       0.034700
     26 H18         17.3110    26.0780    30.5460 hc         1 JO9       0.034700
     27 H17         15.8530    26.6500    29.7930 hc         1 JO9       0.034700
     28 H19         16.0550    25.4070    32.5750 hc         1 JO9       0.044700
     29 H20         15.8550    27.1010    32.1850 hc         1 JO9       0.044700
     30 H4          12.0960    28.5960    35.9690 hc         1 JO9       0.039533
     31 H5          11.1870    27.2220    35.3340 hc         1 JO9       0.039533
     32 H6          12.8190    27.5500    34.7430 hc         1 JO9       0.039533
     33 H7          13.3210    29.4850    33.5030 h1         1 JO9       0.024700
     34 H10         11.1740    29.2490    30.4760 h2         1 JO9       0.085700
     35 H           13.8020    28.3630    31.7480 h1         1 JO9       0.102700
     36 H25         12.4480    31.0020    31.7000 hn         1 JO9       0.396800
     37 H2          10.1450    30.0970    35.3820 hc         1 JO9       0.039533
     38 H1           9.6100    30.2350    33.7000 hc         1 JO9       0.039533
     39 H3           9.2500    28.7800    34.6290 hc         1 JO9       0.039533
     40 H21         13.6110    26.5840    32.5670 h1         1 JO9       0.054700
     41 H22         13.8190    24.9130    32.2220 h1         1 JO9       0.054700
     42 H24         15.2940    30.7410    29.5080 h5         1 JO9      -0.002800
     43 H23         13.4040    29.6450    29.1210 hn         1 JO9       0.321500
     44 H12         13.5820    25.2610    28.6320 h1         1 JO9       0.054700
     45 O1          12.2440    32.3280    33.8180 o          1 JO9      -0.820300
     46 O3          15.6190    29.9260    31.3420 o          1 JO9      -0.599100
     47 C           10.0030    29.5490    34.4490 c3         1 JO9      -0.069600
@<TRIPOS>BOND
     1     1    12 1   
     2     1    13 2   
     3     1    18 1   
     4     2     3 1   
     5     2    18 1   
     6     2    21 1   
     7     2    44 1   
     8     3     4 1   
     9     3    22 1   
    10     3    23 1   
    11     4     5 1   
    12     4    24 1   
    13     4    25 1   
    14     5     6 1   
    15     5    26 1   
    16     5    27 1   
    17     6    16 1   
    18     6    28 1   
    19     6    29 1   
    20     7     8 1   
    21     7     9 1   
    22     7    20 1   
    23     7    47 1   
    24     8    30 1   
    25     8    31 1   
    26     8    32 1   
    27     9    10 1   
    28     9    14 1   
    29     9    33 1   
    30    10    15 1   
    31    10    45 1   
    32    11    12 1   
    33    11    14 1   
    34    11    20 1   
    35    11    34 1   
    36    12    19 1   
    37    12    35 1   
    38    14    36 1   
    39    16    18 1   
    40    16    40 1   
    41    16    41 1   
    42    17    19 1   
    43    17    42 1   
    44    17    46 2   
    45    19    43 1   
    46    37    47 1   
    47    38    47 1   
    48    39    47 1   
@<TRIPOS>SUBSTRUCTURE
     1 JO9         1 TEMP              0 ****  ****    0 ROOT
