@<TRIPOS>MOLECULE
JO9
   47    48     1     0     0
SMALL
No Charge or Current Charge


@<TRIPOS>ATOM
      1 C7          13.1990    27.5690    29.8090 c          1 JO9       0.604100
      2 C8          13.5730    25.0900    29.6450 c3         1 JO9       0.102000
      3 C9          14.2350    23.8450    30.2930 c3         1 JO9      -0.092400
      4 C10         15.7750    23.9310    30.4740 c3         1 JO9      -0.066400
      5 C11         16.3610    25.3470    30.7080 c3         1 JO9      -0.066400
      6 C12         15.7290    26.1570    31.8660 c3         1 JO9      -0.092400
      7 C1          11.4680    28.6620    33.8890 c5         1 JO9       0.185000
      8 C2          12.0450    27.6200    34.8790 c3         1 JO9      -0.069600
      9 C3          12.4760    29.7980    33.5290 c5         1 JO9       0.025500
     10 C4          12.6210    30.8000    34.7520 c          1 JO9       0.738000
     11 C5          11.8990    29.2410    31.2580 c5         1 JO9       0.345500
     12 C6          13.2640    28.9320    30.5610 c3         1 JO9      -0.008300
     13 O2          12.7880    27.5400    28.6510 o          1 JO9      -0.638100
     14 N           11.9770    30.3590    32.2180 n7         1 JO9      -0.851400
     15 O           13.4890    30.5780    35.5870 o          1 JO9      -0.715000
     16 C13         14.1920    26.3080    31.8070 c3         1 JO9       0.102000
     17 C14         14.1200    31.2510    29.8870 c          1 JO9       0.599900
     18 N1          13.6410    26.3640    30.4230 n          1 JO9      -0.389800
     19 N2          13.6610    29.9890    29.5810 ns         1 JO9      -0.509900
     20 S           11.1850    27.8300    32.2480 ss         1 JO9      -0.576000
     21 H11         12.5140    24.8630    29.4670 h1         1 JO9       0.054700
     22 H14         13.7580    23.6260    31.2560 hc         1 JO9       0.044700
     23 H13         14.0150    22.9740    29.6640 hc         1 JO9       0.044700
     24 H16         16.0690    23.2770    31.3040 hc         1 JO9       0.034700
     25 H15         16.2530    23.5180    29.5770 hc         1 JO9       0.034700
     26 H18         17.4370    25.2500    30.8980 hc         1 JO9       0.034700
     27 H17         16.2770    25.9260    29.7800 hc         1 JO9       0.034700
     28 H19         16.0040    25.7060    32.8270 hc         1 JO9       0.044700
     29 H20         16.1740    27.1600    31.8570 hc         1 JO9       0.044700
     30 H4          12.1940    28.0550    35.8740 hc         1 JO9       0.039533
     31 H5          11.3690    26.7630    34.9910 hc         1 JO9       0.039533
     32 H6          13.0130    27.2350    34.5390 hc         1 JO9       0.039533
     33 H7          13.4730    29.3660    33.3720 h1         1 JO9       0.024700
     34 H10         11.1830    29.4810    30.4580 h2         1 JO9       0.085700
     35 H           14.0590    28.8760    31.3090 h1         1 JO9       0.102700
     36 H25         12.6660    31.0390    31.8550 hn         1 JO9       0.452000
     37 H2          10.1770    29.6190    35.4000 hc         1 JO9       0.039533
     38 H1           9.6370    29.8800    33.7340 hc         1 JO9       0.039533
     39 H3           9.3880    28.3130    34.5110 hc         1 JO9       0.039533
     40 H21         13.9040    27.1840    32.3930 h1         1 JO9       0.054700
     41 H22         13.7300    25.4640    32.3320 h1         1 JO9       0.054700
     42 H24         14.3580    31.8500    28.9890 h5         1 JO9      -0.002800
     43 H23         13.5910    29.7650    28.5920 hn         1 JO9       0.321500
     44 H12         14.0400    25.2530    28.6640 h1         1 JO9       0.054700
     45 O1          11.9580    31.8300    34.7870 o          1 JO9      -0.715000
     46 O3          14.2400    31.6510    31.0360 o          1 JO9      -0.599100
     47 C           10.0900    29.1490    34.4130 c3         1 JO9      -0.069600
@<TRIPOS>BOND
     1     1    12 1   
     2     1    13 2   
     3     1    18 1   
     4     2     3 1   
     5     2    18 1   
     6     2    21 1   
     7     2    44 1   
     8     3     4 1   
     9     3    22 1   
    10     3    23 1   
    11     4     5 1   
    12     4    24 1   
    13     4    25 1   
    14     5     6 1   
    15     5    26 1   
    16     5    27 1   
    17     6    16 1   
    18     6    28 1   
    19     6    29 1   
    20     7     8 1   
    21     7     9 1   
    22     7    20 1   
    23     7    47 1   
    24     8    30 1   
    25     8    31 1   
    26     8    32 1   
    27     9    10 1   
    28     9    14 1   
    29     9    33 1   
    30    10    15 1   
    31    10    45 1   
    32    11    12 1   
    33    11    14 1   
    34    11    20 1   
    35    11    34 1   
    36    12    19 1   
    37    12    35 1   
    38    14    36 1   
    39    16    18 1   
    40    16    40 1   
    41    16    41 1   
    42    17    19 1   
    43    17    42 1   
    44    17    46 2   
    45    19    43 1   
    46    37    47 1   
    47    38    47 1   
    48    39    47 1   
@<TRIPOS>SUBSTRUCTURE
     1 JO9         1 TEMP              0 ****  ****    0 ROOT
