@<TRIPOS>MOLECULE
JOA
   38    39     1     0     0
SMALL
abcg2


@<TRIPOS>ATOM
      1 C10          0.5160    -0.8340     0.8730 c6         1 JOA       0.176800
      2 C15          2.5100     1.7400     1.4280 c3         1 JOA      -0.380100
      3 C17          0.3790    -3.7960     0.2310 c3         1 JOA       0.141900
      4 O02         -3.6070     0.5010    -0.3530 os         1 JOA      -0.456000
      5 C03         -2.5190     0.1130     0.4670 c6         1 JOA       0.177300
      6 C04         -1.7040     1.3220     0.9360 c6         1 JOA      -0.102400
      7 C05         -0.7950     1.9040    -0.1470 c6         1 JOA      -0.094400
      8 C06         -0.0260     0.8480    -0.9410 c6         1 JOA       0.227500
      9 C07         -1.0070    -0.1570    -1.5260 c6         1 JOA      -0.062400
     10 C08         -1.7090    -0.8770    -0.3820 c6         1 JOA      -0.054700
     11 C09         -0.6770    -1.6760     0.4150 c6         1 JOA       0.183300
     12 N11          0.9740     0.0870    -0.1680 n3         1 JOA      -0.745500
     13 S12          2.5000     0.6790    -0.0030 s6         1 JOA       1.213100
     14 O13          2.7850     1.4980    -1.1730 o          1 JOA      -0.536000
     15 O14          3.3800    -0.4440     0.2930 o          1 JOA      -0.536000
     16 O16         -0.2810    -2.7400    -0.4220 os         1 JOA      -0.445000
     17 H102         0.2430    -0.3100     1.7910 h1         1 JOA       0.051200
     18 H101         1.3370    -1.4960     1.1430 h1         1 JOA       0.051200
     19 H151         2.2280     1.1730     2.3120 h1         1 JOA       0.098033
     20 H152         3.5230     2.1220     1.5510 h1         1 JOA       0.098033
     21 H153         1.8220     2.5680     1.2750 h1         1 JOA       0.098033
     22 H172        -0.1790    -4.1460     1.1060 h1         1 JOA       0.032700
     23 H173         0.4610    -4.6200    -0.4770 h1         1 JOA       0.032700
     24 H171         1.3910    -3.5350     0.5580 h1         1 JOA       0.032700
     25 H013        -5.0010     0.5310     1.1890 h1         1 JOA       0.028700
     26 H011        -4.4220     2.1270     0.6850 h1         1 JOA       0.028700
     27 H012        -5.5000     1.2100    -0.3700 h1         1 JOA       0.028700
     28 H031        -2.9050    -0.4150     1.3530 h1         1 JOA       0.032700
     29 H041        -2.3760     2.1010     1.3010 hc         1 JOA       0.042200
     30 H042        -1.1230     1.0400     1.8140 hc         1 JOA       0.042200
     31 H051        -1.3970     2.4620    -0.8680 hc         1 JOA       0.050200
     32 H052        -0.1140     2.6350     0.2960 hc         1 JOA       0.050200
     33 H061         0.5050     1.3360    -1.7550 h1         1 JOA       0.091700
     34 H072        -1.7270     0.3720    -2.1520 hc         1 JOA       0.068700
     35 H071        -0.4850    -0.8650    -2.1710 hc         1 JOA       0.068700
     36 H081        -2.4230    -1.6050    -0.7790 hc         1 JOA       0.081700
     37 H091        -1.1460    -2.0760     1.3270 h1         1 JOA       0.033700
     38 C01         -4.6670     1.1210     0.3270 c3         1 JOA       0.146900
@<TRIPOS>BOND
     1     1    11 1   
     2     1    12 1   
     3     1    17 1   
     4     1    18 1   
     5     2    13 1   
     6     2    19 1   
     7     2    20 1   
     8     2    21 1   
     9     3    16 1   
    10     3    22 1   
    11     3    23 1   
    12     3    24 1   
    13     4     5 1   
    14     4    38 1   
    15     5     6 1   
    16     5    10 1   
    17     5    28 1   
    18     6     7 1   
    19     6    29 1   
    20     6    30 1   
    21     7     8 1   
    22     7    31 1   
    23     7    32 1   
    24     8     9 1   
    25     8    12 1   
    26     8    33 1   
    27     9    10 1   
    28     9    34 1   
    29     9    35 1   
    30    10    11 1   
    31    10    36 1   
    32    11    16 1   
    33    11    37 1   
    34    12    13 1   
    35    13    14 2   
    36    13    15 2   
    37    25    38 1   
    38    26    38 1   
    39    27    38 1   
@<TRIPOS>SUBSTRUCTURE
     1 JOA         1 TEMP              0 ****  ****    0 ROOT
