@<TRIPOS>MOLECULE
JOA
   38    39     1     0     0
SMALL
No Charge or Current Charge


@<TRIPOS>ATOM
      1 C10          0.5860    -0.8170     0.7930 c6         1 JOA       0.176800
      2 C15          2.4890     1.4650     1.6430 c3         1 JOA      -0.380100
      3 C17          0.4650    -3.8980     0.3770 c3         1 JOA       0.141900
      4 O02         -3.6990     0.5460    -0.3470 os         1 JOA      -0.456000
      5 C03         -2.5540     0.1410     0.4390 c6         1 JOA       0.177300
      6 C04         -1.6970     1.3730     0.8780 c6         1 JOA      -0.102400
      7 C05         -0.7710     1.9070    -0.2540 c6         1 JOA      -0.094400
      8 C06         -0.0220     0.7980    -1.0620 c6         1 JOA       0.227500
      9 C07         -1.0480    -0.2270    -1.5890 c6         1 JOA      -0.062400
     10 C08         -1.7390    -0.9100    -0.3830 c6         1 JOA      -0.054700
     11 C09         -0.6710    -1.6950     0.4390 c6         1 JOA       0.183300
     12 N11          1.0530     0.0800    -0.3110 n3         1 JOA      -0.745500
     13 S12          2.5470     0.9060    -0.0540 s6         1 JOA       1.213100
     14 O13          2.5260     2.1010    -0.9050 o          1 JOA      -0.536000
     15 O14          3.6140    -0.0840    -0.2260 o          1 JOA      -0.536000
     16 O16         -0.3160    -2.8940    -0.3000 os         1 JOA      -0.445000
     17 H102         0.3710    -0.2440     1.7000 h1         1 JOA       0.051200
     18 H101         1.4080    -1.4820     1.0880 h1         1 JOA       0.051200
     19 H151         2.4940     0.5840     2.2910 h1         1 JOA       0.098033
     20 H152         3.3790     2.0780     1.8120 h1         1 JOA       0.098033
     21 H153         1.5750     2.0540     1.7720 h1         1 JOA       0.098033
     22 H172        -0.0070    -4.1850     1.3260 h1         1 JOA       0.032700
     23 H173         0.5470    -4.7960    -0.2470 h1         1 JOA       0.032700
     24 H171         1.4820    -3.5430     0.5830 h1         1 JOA       0.032700
     25 H013        -5.0980     0.7270     1.2070 h1         1 JOA       0.028700
     26 H011        -4.4270     2.2710     0.6190 h1         1 JOA       0.028700
     27 H012        -5.6110     1.3890    -0.3590 h1         1 JOA       0.028700
     28 H031        -2.9390    -0.3560     1.3430 h1         1 JOA       0.032700
     29 H041        -2.3420     2.1910     1.2210 hc         1 JOA       0.042200
     30 H042        -1.1140     1.1290     1.7710 hc         1 JOA       0.042200
     31 H051        -1.3910     2.4780    -0.9590 hc         1 JOA       0.050200
     32 H052        -0.0590     2.6340     0.1570 hc         1 JOA       0.050200
     33 H061         0.4160     1.2790    -1.9510 h1         1 JOA       0.091700
     34 H072        -1.7880     0.2710    -2.2310 hc         1 JOA       0.068700
     35 H071        -0.5440    -0.9710    -2.2200 hc         1 JOA       0.068700
     36 H081        -2.4580    -1.6450    -0.7690 hc         1 JOA       0.081700
     37 H091        -1.1360    -2.0250     1.3790 h1         1 JOA       0.033700
     38 C01         -4.7540     1.2690     0.3160 c3         1 JOA       0.146900
@<TRIPOS>BOND
     1     1    11 1   
     2     1    12 1   
     3     1    17 1   
     4     1    18 1   
     5     2    13 1   
     6     2    19 1   
     7     2    20 1   
     8     2    21 1   
     9     3    16 1   
    10     3    22 1   
    11     3    23 1   
    12     3    24 1   
    13     4     5 1   
    14     4    38 1   
    15     5     6 1   
    16     5    10 1   
    17     5    28 1   
    18     6     7 1   
    19     6    29 1   
    20     6    30 1   
    21     7     8 1   
    22     7    31 1   
    23     7    32 1   
    24     8     9 1   
    25     8    12 1   
    26     8    33 1   
    27     9    10 1   
    28     9    34 1   
    29     9    35 1   
    30    10    11 1   
    31    10    36 1   
    32    11    16 1   
    33    11    37 1   
    34    12    13 1   
    35    13    14 2   
    36    13    15 2   
    37    25    38 1   
    38    26    38 1   
    39    27    38 1   
@<TRIPOS>SUBSTRUCTURE
     1 JOA         1 TEMP              0 ****  ****    0 ROOT
