@<TRIPOS>MOLECULE
JOB
   28    30     1     0     0
SMALL
abcg2


@<TRIPOS>ATOM
      1 C4           2.5500     0.4490    -1.0030 c          1 JOB       0.568000
      2 C5          -0.6520     1.2740     0.4430 c          1 JOB       0.593600
      3 C6          -1.8770     0.4700     0.2010 ca         1 JOB      -0.078600
      4 C11         -3.7740    -1.4200    -0.3720 ca         1 JOB      -0.212000
      5 C7          -1.4850    -0.8020    -0.2010 ca         1 JOB      -0.223600
      6 C8          -0.0270    -0.8460    -0.2280 c          1 JOB       0.601600
      7 C9          -3.1880     0.8410     0.3270 ca         1 JOB      -0.147000
      8 C10         -4.1770    -0.1270     0.0350 ca         1 JOB       0.375000
      9 C12         -2.4410    -1.7610    -0.4910 ca         1 JOB       0.024000
     10 N1           3.7370    -0.1220    -0.6350 ns         1 JOB      -0.473500
     11 N2           0.4060     0.4230     0.1700 n          1 JOB      -0.388400
     12 C3           1.7900     0.7670     0.2830 c5         1 JOB       0.031700
     13 N3          -5.4810     0.1790     0.1480 nv         1 JOB      -1.124000
     14 C1           3.8560    -0.3840     0.7120 c          1 JOB       0.580000
     15 C2           2.5790     0.0570     1.3830 c5         1 JOB      -0.184400
     16 O1           2.1920     0.6890    -2.1260 o          1 JOB      -0.486000
     17 O2           4.8210    -0.8870     1.2290 o          1 JOB      -0.498000
     18 O3          -0.5570     2.4200     0.8010 o          1 JOB      -0.487000
     19 O4           0.7310    -1.7400    -0.5210 o          1 JOB      -0.493000
     20 H1          -4.5360    -2.1570    -0.5930 ha         1 JOB       0.120000
     21 H2          -3.4700     1.8380     0.6420 ha         1 JOB       0.136000
     22 H3          -2.1610    -2.7590    -0.8040 ha         1 JOB       0.135000
     23 H4           4.4510    -0.3780    -1.3050 hn         1 JOB       0.345500
     24 H5           1.8460     1.8500     0.4200 h1         1 JOB       0.108700
     25 H6          -5.7800     1.1000     0.4150 hn         1 JOB       0.494000
     26 H7          -6.1970    -0.4860    -0.0860 hn         1 JOB       0.494000
     27 H8           2.8000     0.7040     2.2310 hc         1 JOB       0.095200
     28 H9           2.0630    -0.8230     1.7700 hc         1 JOB       0.095200
@<TRIPOS>BOND
     1     1    10 1   
     2     1    12 1   
     3     1    16 2   
     4     2     3 1   
     5     2    11 1   
     6     2    18 2   
     7     3     5 ar  
     8     3     7 ar  
     9     4     8 ar  
    10     4     9 ar  
    11     4    20 1   
    12     5     6 1   
    13     5     9 ar  
    14     6    11 1   
    15     6    19 2   
    16     7     8 ar  
    17     7    21 1   
    18     8    13 1   
    19     9    22 1   
    20    10    14 1   
    21    10    23 1   
    22    11    12 1   
    23    12    15 1   
    24    12    24 1   
    25    13    25 1   
    26    13    26 1   
    27    14    15 1   
    28    14    17 2   
    29    15    27 1   
    30    15    28 1   
@<TRIPOS>SUBSTRUCTURE
     1 JOB         1 TEMP              0 ****  ****    0 ROOT
