@<TRIPOS>MOLECULE
JOB
   28    30     1     0     0
SMALL
No Charge or Current Charge


@<TRIPOS>ATOM
      1 C4           2.7650     0.1900    -1.0860 c          1 JOB       0.568000
      2 C5          -0.6100     1.1810     0.4880 c          1 JOB       0.593600
      3 C6          -1.8790     0.4300     0.2490 ca         1 JOB      -0.078600
      4 C11         -3.8970    -1.3730    -0.4140 ca         1 JOB      -0.212000
      5 C7          -1.5650    -0.7890    -0.3380 ca         1 JOB      -0.223600
      6 C8          -0.0860    -0.8680    -0.4940 c          1 JOB       0.601600
      7 C9          -3.2100     0.7830     0.5200 ca         1 JOB      -0.147000
      8 C10         -4.2220    -0.1350     0.1800 ca         1 JOB       0.375000
      9 C12         -2.5550    -1.7170    -0.6820 ca         1 JOB       0.024000
     10 N1           3.8830    -0.1760    -0.4130 ns         1 JOB      -0.473500
     11 N2           0.4020     0.3360     0.0270 n          1 JOB      -0.388400
     12 C3           1.8440     0.7320     0.0380 c5         1 JOB       0.031700
     13 N3          -5.5320     0.1680     0.4260 nv         1 JOB      -1.124000
     14 C1           3.9270    -0.1300     0.9410 c          1 JOB       0.580000
     15 C2           2.4720     0.1390     1.3430 c5         1 JOB      -0.184400
     16 O1           2.6130     0.1430    -2.2960 o          1 JOB      -0.486000
     17 O2           4.9510    -0.0920     1.6010 o          1 JOB      -0.498000
     18 O3          -0.4760     2.2950     0.9760 o          1 JOB      -0.487000
     19 O4           0.5600    -1.7990    -0.9490 o          1 JOB      -0.493000
     20 H1          -4.6860    -2.0750    -0.6700 ha         1 JOB       0.120000
     21 H2          -3.4490     1.7380     0.9790 ha         1 JOB       0.136000
     22 H3          -2.2980    -2.6710    -1.1410 ha         1 JOB       0.135000
     23 H4           4.7180    -0.4090    -0.9290 hn         1 JOB       0.345500
     24 H5           1.9600     1.8240     0.0180 h1         1 JOB       0.108700
     25 H6          -5.7840     1.1270     0.6630 hn         1 JOB       0.494000
     26 H7          -6.2630    -0.4040     0.0060 hn         1 JOB       0.494000
     27 H8           2.4060     0.7620     2.2410 hc         1 JOB       0.095200
     28 H9           2.0280    -0.8400     1.5600 hc         1 JOB       0.095200
@<TRIPOS>BOND
     1     1    10 1   
     2     1    12 1   
     3     1    16 2   
     4     2     3 1   
     5     2    11 1   
     6     2    18 2   
     7     3     5 ar  
     8     3     7 ar  
     9     4     8 ar  
    10     4     9 ar  
    11     4    20 1   
    12     5     6 1   
    13     5     9 ar  
    14     6    11 1   
    15     6    19 2   
    16     7     8 ar  
    17     7    21 1   
    18     8    13 1   
    19     9    22 1   
    20    10    14 1   
    21    10    23 1   
    22    11    12 1   
    23    12    15 1   
    24    12    24 1   
    25    13    25 1   
    26    13    26 1   
    27    14    15 1   
    28    14    17 2   
    29    15    27 1   
    30    15    28 1   
@<TRIPOS>SUBSTRUCTURE
     1 JOB         1 TEMP              0 ****  ****    0 ROOT
