@<TRIPOS>MOLECULE
JOD
   26    28     1     0     0
SMALL
No Charge or Current Charge


@<TRIPOS>ATOM
      1 C10          0.9890    -1.8450     0.0030 c5         1 JOD       0.150600
      2 O01         -2.1940    -1.8560    -0.0020 oh         1 JOD      -0.648000
      3 C02         -1.4420    -0.6420    -0.0220 c6         1 JOD       0.164000
      4 C03         -2.1460     0.4370    -0.9030 c6         1 JOD      -0.107400
      5 C04         -1.2550     1.7280    -0.9810 c6         1 JOD      -0.092900
      6 C05         -0.0020     1.5970    -0.0570 c6         1 JOD       0.114700
      7 C06         -0.5250     1.3150     1.3840 c6         1 JOD      -0.092900
      8 C07         -1.3150    -0.0420     1.4200 c6         1 JOD      -0.107400
      9 N08          0.7450     0.3870    -0.4670 n          1 JOD      -0.408800
     10 C09         -0.0180    -0.8530    -0.6450 c5         1 JOD       0.065700
     11 O11          2.2810    -1.1840    -0.1120 os         1 JOD      -0.421100
     12 C12          2.0800     0.1640    -0.1730 c          1 JOD       0.687100
     13 O13          2.9280     1.0190     0.0240 o          1 JOD      -0.527000
     14 H102         0.7730    -2.0030     1.0670 h1         1 JOD       0.073200
     15 H101         1.0120    -2.8220    -0.4970 h1         1 JOD       0.073200
     16 H011        -3.0850    -1.6300     0.3450 ho         1 JOD       0.451000
     17 H032        -2.3270     0.0470    -1.9150 hc         1 JOD       0.052200
     18 H031        -3.1310     0.6870    -0.4860 hc         1 JOD       0.052200
     19 H042        -0.9270     1.8930    -2.0170 hc         1 JOD       0.058950
     20 H041        -1.8430     2.6130    -0.7000 hc         1 JOD       0.058950
     21 H051         0.6290     2.4990    -0.0960 h1         1 JOD       0.093700
     22 H062         0.3180     1.2750     2.0870 hc         1 JOD       0.058950
     23 H061        -1.1680     2.1400     1.7190 hc         1 JOD       0.058950
     24 H071        -2.3120     0.1250     1.8520 hc         1 JOD       0.052200
     25 H072        -0.8110    -0.7510     2.0900 hc         1 JOD       0.052200
     26 H091        -0.1290    -1.0810    -1.7140 h1         1 JOD       0.086700
@<TRIPOS>BOND
     1     1    10 1   
     2     1    11 1   
     3     1    14 1   
     4     1    15 1   
     5     2     3 1   
     6     2    16 1   
     7     3     4 1   
     8     3     8 1   
     9     3    10 1   
    10     4     5 1   
    11     4    17 1   
    12     4    18 1   
    13     5     6 1   
    14     5    19 1   
    15     5    20 1   
    16     6     7 1   
    17     6     9 1   
    18     6    21 1   
    19     7     8 1   
    20     7    22 1   
    21     7    23 1   
    22     8    24 1   
    23     8    25 1   
    24     9    10 1   
    25     9    12 1   
    26    10    26 1   
    27    11    12 1   
    28    12    13 2   
@<TRIPOS>SUBSTRUCTURE
     1 JOD         1 TEMP              0 ****  ****    0 ROOT
