@<TRIPOS>MOLECULE
JOD
   26    28     1     0     0
SMALL
bcc


@<TRIPOS>ATOM
      1 C10          0.8800    -1.8800    -0.1270 c5         1 JOD       0.127400
      2 O01         -2.0390    -1.8320     0.0350 oh         1 JOD      -0.585800
      3 C02         -1.3960    -0.5840     0.0140 c6         1 JOD       0.140800
      4 C03         -2.1470     0.4690    -0.8140 c6         1 JOD      -0.107400
      5 C04         -1.2120     1.6730    -1.0690 c6         1 JOD      -0.092900
      6 C05         -0.0320     1.6000    -0.1050 c6         1 JOD       0.114700
      7 C06         -0.5640     1.4070     1.3170 c6         1 JOD      -0.092900
      8 C07         -1.1580    -0.0140     1.4170 c6         1 JOD      -0.107400
      9 N08          0.7390     0.4110    -0.4640 n          1 JOD      -0.475800
     10 C09         -0.0460    -0.7910    -0.6830 c5         1 JOD       0.065700
     11 O11          2.1080    -1.2030     0.1630 os         1 JOD      -0.397900
     12 C12          1.9360     0.1260     0.1000 c          1 JOD       0.829600
     13 O13          2.7750     0.9030     0.4890 o          1 JOD      -0.602500
     14 H102         0.5070    -2.3420     0.7900 h1         1 JOD       0.073200
     15 H101         1.0740    -2.6640    -0.8550 h1         1 JOD       0.073200
     16 H011        -2.8920    -1.7320     0.4710 ho         1 JOD       0.412000
     17 H032        -2.4730     0.0270    -1.7570 hc         1 JOD       0.052200
     18 H031        -3.0460     0.7800    -0.2740 hc         1 JOD       0.052200
     19 H042        -0.8450     1.6740    -2.0970 hc         1 JOD       0.058950
     20 H041        -1.7390     2.6160    -0.9210 hc         1 JOD       0.058950
     21 H051         0.6040     2.4800    -0.1920 h1         1 JOD       0.093700
     22 H062         0.2300     1.5500     2.0520 hc         1 JOD       0.058950
     23 H061        -1.3200     2.1680     1.5210 hc         1 JOD       0.058950
     24 H071        -2.1040     0.0030     1.9640 hc         1 JOD       0.052200
     25 H072        -0.4940    -0.6730     1.9840 hc         1 JOD       0.052200
     26 H091        -0.2200    -0.9540    -1.7530 h1         1 JOD       0.086700
@<TRIPOS>BOND
     1     1    10 1   
     2     1    11 1   
     3     1    14 1   
     4     1    15 1   
     5     2     3 1   
     6     2    16 1   
     7     3     4 1   
     8     3     8 1   
     9     3    10 1   
    10     4     5 1   
    11     4    17 1   
    12     4    18 1   
    13     5     6 1   
    14     5    19 1   
    15     5    20 1   
    16     6     7 1   
    17     6     9 1   
    18     6    21 1   
    19     7     8 1   
    20     7    22 1   
    21     7    23 1   
    22     8    24 1   
    23     8    25 1   
    24     9    10 1   
    25     9    12 1   
    26    10    26 1   
    27    11    12 1   
    28    12    13 2   
@<TRIPOS>SUBSTRUCTURE
     1 JOD         1 TEMP              0 ****  ****    0 ROOT
