@<TRIPOS>MOLECULE
JOE
   30    31     1     0     0
SMALL
No Charge or Current Charge


@<TRIPOS>ATOM
      1 C4           3.9480     0.1940    -1.2210 c          1 JOE       0.533000
      2 C5           0.5650     0.1740     0.4080 c          1 JOE       0.647700
      3 C6          -0.6960    -0.6120     0.1030 ca         1 JOE      -0.147600
      4 C11         -0.5900    -1.9430    -0.3660 ca         1 JOE      -0.080000
      5 C7          -1.9930    -0.0520     0.3110 ca         1 JOE      -0.019600
      6 C8          -3.1460    -0.8480     0.0540 ca         1 JOE      -0.161200
      7 C9          -3.0060    -2.1760    -0.3940 ca         1 JOE      -0.059000
      8 C10         -1.7330    -2.7150    -0.6080 ca         1 JOE      -0.161000
      9 C12         -2.1590     1.3810     0.7860 c          1 JOE       0.727600
     10 N1           5.0910    -0.1500    -0.5770 ns         1 JOE      -0.491500
     11 N2           1.6770    -0.1860    -0.3330 ns         1 JOE      -0.497900
     12 C3           2.9670     0.4890    -0.0570 c5         1 JOE       0.030700
     13 N3          -4.5200    -0.2950     0.2390 no         1 JOE       0.707200
     14 C1           5.1070    -0.3130     0.7690 c          1 JOE       0.574000
     15 C2           3.6250    -0.2400     1.1630 c5         1 JOE      -0.188400
     16 O1           6.1120    -0.2880     1.4580 o          1 JOE      -0.527000
     17 O2           3.8000     0.2590    -2.4310 o          1 JOE      -0.437000
     18 O3           0.6250     1.0210     1.2900 o          1 JOE      -0.554100
     19 O4          -1.8630     2.2820     0.0110 o          1 JOE      -0.674000
     20 O5          -2.6480     1.5660     1.8940 o          1 JOE      -0.674000
     21 O6          -4.7970     0.7630    -0.3390 o          1 JOE      -0.404000
     22 O7          -5.3670    -1.0320     0.7630 o          1 JOE      -0.404000
     23 H1           0.3820    -2.4080    -0.5150 ha         1 JOE       0.098000
     24 H2          -3.8850    -2.7880    -0.5920 ha         1 JOE       0.124000
     25 H3          -1.6310    -3.7410    -0.9570 ha         1 JOE       0.103000
     26 H4           5.9510    -0.2370    -1.0980 hn         1 JOE       0.332500
     27 H5           1.5410    -0.8760    -1.0630 hn         1 JOE       0.317500
     28 H6           2.9030     1.5780     0.0730 h1         1 JOE       0.118700
     29 H7           3.4860     0.2330     2.1400 hc         1 JOE       0.083200
     30 H8           3.2710    -1.2750     1.2200 hc         1 JOE       0.083200
@<TRIPOS>BOND
     1     1    10 1   
     2     1    12 1   
     3     1    17 2   
     4     2     3 1   
     5     2    11 1   
     6     2    18 2   
     7     3     4 ar  
     8     3     5 ar  
     9     4     8 ar  
    10     4    23 1   
    11     5     6 ar  
    12     5     9 1   
    13     6     7 ar  
    14     6    13 1   
    15     7     8 ar  
    16     7    24 1   
    17     8    25 1   
    18     9    19 1   
    19     9    20 1   
    20    10    14 1   
    21    10    26 1   
    22    11    12 1   
    23    11    27 1   
    24    12    15 1   
    25    12    28 1   
    26    13    21 1   
    27    13    22 1   
    28    14    15 1   
    29    14    16 2   
    30    15    29 1   
    31    15    30 1   
@<TRIPOS>SUBSTRUCTURE
     1 JOE         1 TEMP              0 ****  ****    0 ROOT
