@<TRIPOS>MOLECULE
JOE
   30    31     1     0     0
SMALL
abcg2


@<TRIPOS>ATOM
      1 C4           3.4150     1.0230    -0.6640 c          1 JOE       0.533000
      2 C5           0.4830     0.0050     0.8360 c          1 JOE       0.647700
      3 C6          -0.7540    -0.7470     0.4520 ca         1 JOE      -0.147600
      4 C11         -0.7670    -2.1320     0.5670 ca         1 JOE      -0.080000
      5 C7          -1.9000    -0.0460     0.0730 ca         1 JOE      -0.019600
      6 C8          -3.0380    -0.8030    -0.1680 ca         1 JOE      -0.161200
      7 C9          -3.0810    -2.1840    -0.0420 ca         1 JOE      -0.059000
      8 C10         -1.9270    -2.8520     0.3230 ca         1 JOE      -0.161000
      9 C12         -1.8800     1.4810    -0.0250 c          1 JOE       0.727600
     10 N1           4.7510     0.7440    -0.8060 ns         1 JOE      -0.491500
     11 N2           1.5980    -0.3980     0.1950 ns         1 JOE      -0.497900
     12 C3           2.8960     0.1370     0.4650 c5         1 JOE       0.030700
     13 N3          -4.2550    -0.1440    -0.6200 no         1 JOE       0.707200
     14 C1           5.1970    -0.3170    -0.0520 c          1 JOE       0.574000
     15 C2           4.0020    -0.9000     0.6600 c5         1 JOE      -0.188400
     16 O1           6.3380    -0.7000    -0.0110 o          1 JOE      -0.527000
     17 O2           2.7890     1.8290    -1.2990 o          1 JOE      -0.437000
     18 O3           0.4660     0.8570     1.7050 o          1 JOE      -0.554100
     19 O4          -1.0490     1.9390    -0.8210 o          1 JOE      -0.674000
     20 O5          -2.6800     2.0720     0.7140 o          1 JOE      -0.674000
     21 O6          -4.1540     0.7170    -1.4590 o          1 JOE      -0.404000
     22 O7          -5.3030    -0.5220    -0.1510 o          1 JOE      -0.404000
     23 H1           0.1300    -2.6580     0.8710 ha         1 JOE       0.098000
     24 H2          -3.9890    -2.7330    -0.2490 ha         1 JOE       0.124000
     25 H3          -1.9320    -3.9290     0.4160 ha         1 JOE       0.103000
     26 H4           5.3530     1.2530    -1.4410 hn         1 JOE       0.332500
     27 H5           1.5070    -1.0440    -0.5740 hn         1 JOE       0.317500
     28 H6           2.8230     0.7740     1.3500 h1         1 JOE       0.118700
     29 H7           4.2280    -1.1070     1.7050 hc         1 JOE       0.083200
     30 H8           3.7500    -1.8490     0.1800 hc         1 JOE       0.083200
@<TRIPOS>BOND
     1     1    10 1   
     2     1    12 1   
     3     1    17 2   
     4     2     3 1   
     5     2    11 1   
     6     2    18 2   
     7     3     4 ar  
     8     3     5 ar  
     9     4     8 ar  
    10     4    23 1   
    11     5     6 ar  
    12     5     9 1   
    13     6     7 ar  
    14     6    13 1   
    15     7     8 ar  
    16     7    24 1   
    17     8    25 1   
    18     9    19 1   
    19     9    20 1   
    20    10    14 1   
    21    10    26 1   
    22    11    12 1   
    23    11    27 1   
    24    12    15 1   
    25    12    28 1   
    26    13    21 1   
    27    13    22 1   
    28    14    15 1   
    29    14    16 2   
    30    15    29 1   
    31    15    30 1   
@<TRIPOS>SUBSTRUCTURE
     1 JOE         1 TEMP              0 ****  ****    0 ROOT
