@<TRIPOS>MOLECULE
JOF
   25    27     1     0     0
SMALL
bcc


@<TRIPOS>ATOM
      1 C4          94.4060    -7.0680    13.1690 ca         1 JOF       0.201100
      2 C5          91.7950    -9.0800    14.6630 cc         1 JOF      -0.162300
      3 C6          91.8980    -7.0410    15.7580 c5         1 JOF       0.174200
      4 C8          94.1100    -9.6320    12.0040 ca         1 JOF      -0.032600
      5 N12         90.8600    -7.9010    16.3040 n          1 JOF      -0.488800
      6 C13         95.0610    -8.7490    11.5480 ca         1 JOF      -0.049000
      7 C1          93.4310    -7.9540    13.6500 ca         1 JOF      -0.104800
      8 C2          92.4550    -7.8970    14.6760 cd         1 JOF      -0.111400
      9 C3          93.2880    -9.2350    13.0590 ca         1 JOF      -0.000200
     10 N7          92.2820    -9.9030    13.6940 na         1 JOF      -0.109400
     11 C9          95.2110    -7.4760    12.1220 ca         1 JOF      -0.260000
     12 O10         94.4850    -5.8700    13.7710 oh         1 JOF      -0.485100
     13 C11         90.7620    -9.1190    15.7020 c          1 JOF       0.748700
     14 CL14        93.9150   -11.2040    11.3070 cl         1 JOF      -0.106400
     15 O15         89.9850   -10.0160    15.9830 o          1 JOF      -0.618500
     16 C16         90.0520    -7.4800    17.4160 c3         1 JOF       0.099300
     17 H1          92.6370    -6.7900    16.5250 h1         1 JOF       0.066200
     18 H2          91.4710    -6.1030    15.3910 h1         1 JOF       0.066200
     19 H3          95.7110    -9.0350    10.7320 ha         1 JOF       0.147000
     20 H4          91.9640   -10.8350    13.4800 hn         1 JOF       0.327700
     21 H5          95.9730    -6.8140    11.7290 ha         1 JOF       0.137000
     22 H6          95.1860    -5.3360    13.3790 ho         1 JOF       0.430000
     23 H7          89.2820    -8.2230    17.6060 h1         1 JOF       0.044033
     24 H8          90.6520    -7.3620    18.3210 h1         1 JOF       0.044033
     25 H9          89.5670    -6.5270    17.1990 h1         1 JOF       0.044033
@<TRIPOS>BOND
     1     1     7 ar  
     2     1    11 ar  
     3     1    12 1   
     4     2     8 2   
     5     2    10 1   
     6     2    13 1   
     7     3     5 1   
     8     3     8 1   
     9     3    17 1   
    10     3    18 1   
    11     4     6 ar  
    12     4     9 ar  
    13     4    14 1   
    14     5    13 1   
    15     5    16 1   
    16     6    11 ar  
    17     6    19 1   
    18     7     8 1   
    19     7     9 ar  
    20     9    10 1   
    21    10    20 1   
    22    11    21 1   
    23    12    22 1   
    24    13    15 2   
    25    16    23 1   
    26    16    24 1   
    27    16    25 1   
@<TRIPOS>SUBSTRUCTURE
     1 JOF         1 TEMP              0 ****  ****    0 ROOT
