@<TRIPOS>MOLECULE
JOF
   25    27     1     0     0
SMALL
No Charge or Current Charge


@<TRIPOS>ATOM
      1 C4          94.3580    -7.0340    13.1330 ca         1 JOF       0.201100
      2 C5          91.7910    -9.1330    14.7550 cc         1 JOF      -0.162300
      3 C6          91.8850    -7.0310    15.7130 c5         1 JOF       0.174200
      4 C8          94.1610    -9.6520    12.0230 ca         1 JOF       0.059000
      5 N12         90.8470    -7.8760    16.3710 n          1 JOF      -0.421800
      6 C13         95.0970    -8.7230    11.5140 ca         1 JOF      -0.031000
      7 C1          93.4430    -7.9780    13.6120 ca         1 JOF      -0.104800
      8 C2          92.4570    -7.9480    14.6560 cd         1 JOF      -0.111400
      9 C3          93.3380    -9.2470    13.0850 ca         1 JOF      -0.000200
     10 N7          92.3440    -9.9660    13.7600 na         1 JOF      -0.159700
     11 C9          95.1950    -7.4190    12.0660 ca         1 JOF      -0.242000
     12 O10         94.4380    -5.7870    13.6750 oh         1 JOF      -0.524100
     13 C11         90.7740    -9.1570    15.8030 c          1 JOF       0.606200
     14 Cl14        94.0360   -11.2700    11.3410 cl         1 JOF      -0.198000
     15 O15         90.0240   -10.0670    16.1290 o          1 JOF      -0.543000
     16 C16         89.9770    -7.4650    17.4850 c3         1 JOF       0.099300
     17 H1          92.6710    -6.7260    16.4150 h1         1 JOF       0.066200
     18 H2          91.4510    -6.1380    15.2450 h1         1 JOF       0.066200
     19 H3          95.7460    -9.0130    10.6910 ha         1 JOF       0.129000
     20 H4          92.0720   -10.9240    13.5620 hn         1 JOF       0.378000
     21 H5          95.9220    -6.7200    11.6590 ha         1 JOF       0.119000
     22 H6          95.1360    -5.2920    13.1960 ho         1 JOF       0.469000
     23 H7          88.9260    -7.5340    17.1780 h1         1 JOF       0.044033
     24 H8          90.1470    -8.1200    18.3480 h1         1 JOF       0.044033
     25 H9          90.2000    -6.4290    17.7700 h1         1 JOF       0.044033
@<TRIPOS>BOND
     1     1     7 ar  
     2     1    11 ar  
     3     1    12 1   
     4     2     8 2   
     5     2    10 1   
     6     2    13 1   
     7     3     5 1   
     8     3     8 1   
     9     3    17 1   
    10     3    18 1   
    11     4     6 ar  
    12     4     9 ar  
    13     4    14 1   
    14     5    13 1   
    15     5    16 1   
    16     6    11 ar  
    17     6    19 1   
    18     7     8 1   
    19     7     9 ar  
    20     9    10 1   
    21    10    20 1   
    22    11    21 1   
    23    12    22 1   
    24    13    15 2   
    25    16    23 1   
    26    16    24 1   
    27    16    25 1   
@<TRIPOS>SUBSTRUCTURE
     1 JOF         1 TEMP              0 ****  ****    0 ROOT
