@<TRIPOS>MOLECULE
JOG
   40    42     1     0     0
SMALL
abcg2


@<TRIPOS>ATOM
      1 C10         -1.0280     1.0730     0.0860 c6         1 JOG       0.068000
      2 C15          2.9730     0.1780    -0.1480 ca         1 JOG      -0.013000
      3 C17          5.1240    -0.6320     0.5710 ca         1 JOG      -0.087000
      4 C20          3.6040     0.8480    -1.1970 ca         1 JOG      -0.142000
      5 O01         -4.4430     0.9460    -1.4570 oh         1 JOG      -0.663000
      6 C02         -3.8850    -0.1490    -0.7610 c6         1 JOG       0.174300
      7 C03         -2.7980    -0.8510    -1.5740 c6         1 JOG      -0.113400
      8 C04         -2.0210    -1.8750    -0.7460 c6         1 JOG      -0.095400
      9 C05         -1.5890    -1.3290     0.6160 c6         1 JOG       0.119700
     10 C06         -2.8080    -0.8300     1.3740 c6         1 JOG      -0.080400
     11 C07         -3.4210     0.3380     0.6130 c6         1 JOG      -0.049700
     12 C08         -2.4100     1.4810     0.6040 c6         1 JOG       0.177300
     13 O09         -2.3420     1.9430     1.9410 oh         1 JOG      -0.656000
     14 N11         -0.5940    -0.2570     0.4990 n          1 JOG      -0.406800
     15 C12          0.7160    -0.6350     0.4220 c          1 JOG       0.655100
     16 O13          1.1010    -1.7540     0.7320 o          1 JOG      -0.622100
     17 N14          1.5900     0.3350    -0.0150 ns         1 JOG      -0.166000
     18 C16          3.7500    -0.5590     0.7480 ca         1 JOG      -0.142000
     19 C18          5.7500     0.0310    -0.4760 ca         1 JOG      -0.135000
     20 C19          4.9790     0.7790    -1.3560 ca         1 JOG      -0.087000
     21 H101        -1.0160     1.1780    -1.0040 h1         1 JOG       0.038200
     22 H102        -0.3260     1.8160     0.4720 h1         1 JOG       0.038200
     23 H171         5.7120    -1.2090     1.2720 ha         1 JOG       0.111500
     24 H201         3.0100     1.4250    -1.8980 ha         1 JOG       0.121500
     25 H011        -4.7570     0.6320    -2.3120 ho         1 JOG       0.445000
     26 H021        -4.6640    -0.9010    -0.5540 h1         1 JOG       0.031700
     27 H032        -3.2650    -1.3580    -2.4230 hc         1 JOG       0.043200
     28 H031        -2.1200    -0.1150    -2.0100 hc         1 JOG       0.043200
     29 H041        -2.6490    -2.7520    -0.5650 hc         1 JOG       0.054200
     30 H042        -1.1530    -2.2310    -1.3060 hc         1 JOG       0.054200
     31 H051        -1.1270    -2.1330     1.1850 h1         1 JOG       0.092700
     32 H061        -3.5250    -1.6510     1.4650 hc         1 JOG       0.063700
     33 H062        -2.5380    -0.5360     2.3880 hc         1 JOG       0.063700
     34 H071        -4.3090     0.7000     1.1430 hc         1 JOG       0.079700
     35 H081        -2.7580     2.2870    -0.0540 h1         1 JOG       0.053700
     36 H091        -1.7830     2.7260     1.9630 ho         1 JOG       0.442000
     37 H141         1.2130     1.1110    -0.5350 hn         1 JOG       0.144000
     38 H161         3.2950    -1.0660     1.5840 ha         1 JOG       0.121500
     39 H181         6.8230    -0.0310    -0.6030 ha         1 JOG       0.114000
     40 H191         5.4460     1.3070    -2.1770 ha         1 JOG       0.111500
@<TRIPOS>BOND
     1     1    12 1   
     2     1    14 1   
     3     1    21 1   
     4     1    22 1   
     5     2     4 ar  
     6     2    17 1   
     7     2    18 ar  
     8     3    18 ar  
     9     3    19 ar  
    10     3    23 1   
    11     4    20 ar  
    12     4    24 1   
    13     5     6 1   
    14     5    25 1   
    15     6     7 1   
    16     6    11 1   
    17     6    26 1   
    18     7     8 1   
    19     7    27 1   
    20     7    28 1   
    21     8     9 1   
    22     8    29 1   
    23     8    30 1   
    24     9    10 1   
    25     9    14 1   
    26     9    31 1   
    27    10    11 1   
    28    10    32 1   
    29    10    33 1   
    30    11    12 1   
    31    11    34 1   
    32    12    13 1   
    33    12    35 1   
    34    13    36 1   
    35    14    15 1   
    36    15    16 2   
    37    15    17 1   
    38    17    37 1   
    39    18    38 1   
    40    19    20 ar  
    41    19    39 1   
    42    20    40 1   
@<TRIPOS>SUBSTRUCTURE
     1 JOG         1 TEMP              0 ****  ****    0 ROOT
