@<TRIPOS>MOLECULE
JOG
   40    42     1     0     0
SMALL
No Charge or Current Charge


@<TRIPOS>ATOM
      1 C10         -0.9880     1.0440     0.0230 c6         1 JOG       0.068000
      2 C15          3.0880     0.1200    -0.1300 ca         1 JOG      -0.013000
      3 C17          5.2680    -0.9890    -0.0670 ca         1 JOG      -0.087000
      4 C20          3.7200     1.2870    -0.6010 ca         1 JOG      -0.142000
      5 O01         -4.4680     0.7740    -1.7010 oh         1 JOG      -0.663000
      6 C02         -3.9700    -0.2120    -0.7930 c6         1 JOG       0.174300
      7 C03         -2.8760    -1.0670    -1.4880 c6         1 JOG      -0.113400
      8 C04         -2.1670    -2.0200    -0.4870 c6         1 JOG      -0.095400
      9 C05         -1.6960    -1.3000     0.8110 c6         1 JOG       0.119700
     10 C06         -2.9180    -0.6340     1.4830 c6         1 JOG      -0.080400
     11 C07         -3.4870     0.4480     0.5410 c6         1 JOG      -0.049700
     12 C08         -2.4200     1.5700     0.3800 c6         1 JOG       0.177300
     13 O09         -2.3590     2.3420     1.5950 oh         1 JOG      -0.656000
     14 N11         -0.5960    -0.3250     0.5210 n          1 JOG      -0.406800
     15 C12          0.7480    -0.7720     0.4830 c          1 JOG       0.655100
     16 O13          1.0450    -1.9130     0.8140 o          1 JOG      -0.622100
     17 N14          1.6770     0.1680     0.0490 ns         1 JOG      -0.166000
     18 C16          3.8770    -1.0220     0.1370 ca         1 JOG      -0.142000
     19 C18          5.8850     0.1820    -0.5370 ca         1 JOG      -0.135000
     20 C19          5.1100     1.3210    -0.8040 ca         1 JOG      -0.087000
     21 H101        -0.8790     1.0520    -1.0700 h1         1 JOG       0.038200
     22 H102        -0.2620     1.7800     0.3960 h1         1 JOG       0.038200
     23 H171         5.8680    -1.8720     0.1410 ha         1 JOG       0.111500
     24 H201         3.1300     2.1770    -0.8120 ha         1 JOG       0.121500
     25 H011        -4.8250     0.2880    -2.4760 ho         1 JOG       0.445000
     26 H021        -4.7900    -0.8970    -0.5280 h1         1 JOG       0.031700
     27 H032        -3.3340    -1.6640    -2.2890 hc         1 JOG       0.043200
     28 H031        -2.1410    -0.4270    -1.9890 hc         1 JOG       0.043200
     29 H041        -2.8560    -2.8310    -0.2140 hc         1 JOG       0.054200
     30 H042        -1.3120    -2.5050    -0.9780 hc         1 JOG       0.054200
     31 H051        -1.3190    -2.0640     1.5080 h1         1 JOG       0.092700
     32 H061        -3.6860    -1.3880     1.7070 hc         1 JOG       0.063700
     33 H062        -2.6250    -0.2000     2.4490 hc         1 JOG       0.063700
     34 H071        -4.3720     0.8920     1.0180 hc         1 JOG       0.079700
     35 H081        -2.7390     2.2390    -0.4330 h1         1 JOG       0.053700
     36 H091        -1.8280     3.1440     1.3980 ho         1 JOG       0.442000
     37 H141         1.2730     1.0620    -0.1880 hn         1 JOG       0.144000
     38 H161         3.4360    -1.9440     0.5010 ha         1 JOG       0.121500
     39 H181         6.9610     0.2050    -0.6940 ha         1 JOG       0.114000
     40 H191         5.5850     2.2290    -1.1690 ha         1 JOG       0.111500
@<TRIPOS>BOND
     1     1    12 1   
     2     1    14 1   
     3     1    21 1   
     4     1    22 1   
     5     2     4 ar  
     6     2    17 1   
     7     2    18 ar  
     8     3    18 ar  
     9     3    19 ar  
    10     3    23 1   
    11     4    20 ar  
    12     4    24 1   
    13     5     6 1   
    14     5    25 1   
    15     6     7 1   
    16     6    11 1   
    17     6    26 1   
    18     7     8 1   
    19     7    27 1   
    20     7    28 1   
    21     8     9 1   
    22     8    29 1   
    23     8    30 1   
    24     9    10 1   
    25     9    14 1   
    26     9    31 1   
    27    10    11 1   
    28    10    32 1   
    29    10    33 1   
    30    11    12 1   
    31    11    34 1   
    32    12    13 1   
    33    12    35 1   
    34    13    36 1   
    35    14    15 1   
    36    15    16 2   
    37    15    17 1   
    38    17    37 1   
    39    18    38 1   
    40    19    20 ar  
    41    19    39 1   
    42    20    40 1   
@<TRIPOS>SUBSTRUCTURE
     1 JOG         1 TEMP              0 ****  ****    0 ROOT
