@<TRIPOS>MOLECULE
JOH
   28    30     1     0     0
SMALL
No Charge or Current Charge


@<TRIPOS>ATOM
      1 O3          -1.3210     2.1430    -0.5410 o          1 JOH      -0.470000
      2 C5          -0.4820     1.2800    -0.3310 c          1 JOH       0.587600
      3 N2          -0.6990    -0.0820    -0.1040 n          1 JOH      -0.381400
      4 C1          -2.0370    -0.7490    -0.1740 c5         1 JOH       0.026700
      5 C4          -2.6890    -0.6160     1.2440 c5         1 JOH      -0.183400
      6 C3          -4.1890    -0.5560     0.9360 c          1 JOH       0.579000
      7 O1          -5.1460    -0.9500     1.5790 o          1 JOH      -0.489000
      8 N1          -4.2350    -0.1860    -0.3670 ns         1 JOH      -0.473500
      9 C2          -3.1090    -0.1530    -1.1220 c          1 JOH       0.566000
     10 O2          -3.0400     0.2070    -2.2860 o          1 JOH      -0.483000
     11 C6           0.9920     1.4610    -0.2250 ca         1 JOH      -0.146600
     12 C7           1.5780     0.2310     0.0650 ca         1 JOH      -0.085600
     13 C8           0.4820    -0.7930     0.1220 c          1 JOH       0.596600
     14 O4           0.5760    -2.0000     0.2910 o          1 JOH      -0.435000
     15 C9           1.7520     2.6270    -0.3850 ca         1 JOH      -0.014000
     16 C10          3.1510     2.5270    -0.2500 ca         1 JOH      -0.098000
     17 C11          3.7610     1.2850     0.0470 ca         1 JOH      -0.046000
     18 C12          2.9800     0.1130     0.2190 ca         1 JOH      -0.112200
     19 N3           3.6410    -1.1790     0.5610 no         1 JOH       0.693200
     20 O5           4.7270    -1.4250     0.0210 o          1 JOH      -0.369000
     21 O6           3.1890    -1.8200     1.5180 o          1 JOH      -0.369000
     22 H1          -1.9460    -1.8070    -0.4570 h1         1 JOH       0.114700
     23 H2          -2.4520    -1.4070     1.9630 hc         1 JOH       0.098200
     24 H3          -2.4280     0.3520     1.6860 hc         1 JOH       0.098200
     25 H4          -5.1280    -0.0090    -0.8020 hn         1 JOH       0.349500
     26 H5           1.2780     3.5800    -0.6140 ha         1 JOH       0.151000
     27 H6           3.7680     3.4140    -0.3730 ha         1 JOH       0.139000
     28 H7           4.8430     1.2400     0.1540 ha         1 JOH       0.155000
@<TRIPOS>BOND
     1     1     2 2   
     2     2     3 1   
     3     2    11 1   
     4     3     4 1   
     5     3    13 1   
     6     4     5 1   
     7     4     9 1   
     8     4    22 1   
     9     5     6 1   
    10     5    23 1   
    11     5    24 1   
    12     6     7 2   
    13     6     8 1   
    14     8     9 1   
    15     8    25 1   
    16     9    10 2   
    17    11    12 ar  
    18    11    15 ar  
    19    12    13 1   
    20    12    18 ar  
    21    13    14 2   
    22    15    16 ar  
    23    15    26 1   
    24    16    17 ar  
    25    16    27 1   
    26    17    18 ar  
    27    17    28 1   
    28    18    19 1   
    29    19    20 1   
    30    19    21 1   
@<TRIPOS>SUBSTRUCTURE
     1 JOH         1 TEMP              0 ****  ****    0 ROOT
