@<TRIPOS>MOLECULE
JOH
   28    30     1     0     0
SMALL
abcg2


@<TRIPOS>ATOM
      1 O3          -1.4130     1.9670    -0.1450 o          1 JOH      -0.470000
      2 C5          -0.5150     1.1710    -0.0560 c          1 JOH       0.587600
      3 N2          -0.6810    -0.1950     0.0780 n          1 JOH      -0.381400
      4 C1          -1.9700    -0.8230     0.1040 c5         1 JOH       0.026700
      5 C4          -2.8430    -0.5230     1.3220 c5         1 JOH      -0.183400
      6 C3          -4.2110    -0.2560     0.7450 c          1 JOH       0.579000
      7 O1          -5.2430    -0.1050     1.3470 o          1 JOH      -0.489000
      8 N1          -4.0860    -0.1960    -0.6260 ns         1 JOH      -0.473500
      9 C2          -2.8190    -0.4020    -1.0940 c          1 JOH       0.566000
     10 O2          -2.4490    -0.3060    -2.2340 o          1 JOH      -0.483000
     11 C6           0.9460     1.4030    -0.0660 ca         1 JOH      -0.146600
     12 C7           1.5790     0.1810     0.0880 ca         1 JOH      -0.085600
     13 C8           0.5260    -0.8780     0.1370 c          1 JOH       0.596600
     14 O4           0.6390    -2.0710     0.1840 o          1 JOH      -0.435000
     15 C9           1.6340     2.5900    -0.2050 ca         1 JOH      -0.014000
     16 C10          3.0230     2.5300    -0.2100 ca         1 JOH      -0.098000
     17 C11          3.6840     1.3160    -0.0760 ca         1 JOH      -0.046000
     18 C12          2.9580     0.1440     0.0880 ca         1 JOH      -0.112200
     19 N3           3.6900    -1.0980     0.2890 no         1 JOH       0.693200
     20 O5           4.6640    -1.2810    -0.3990 o          1 JOH      -0.369000
     21 O6           3.2880    -1.8440     1.1440 o          1 JOH      -0.369000
     22 H1          -1.8090    -1.8990     0.0120 h1         1 JOH       0.114700
     23 H2          -2.8800    -1.3490     2.0300 hc         1 JOH       0.098200
     24 H3          -2.5130     0.3630     1.8670 hc         1 JOH       0.098200
     25 H4          -4.8640     0.0280    -1.2350 hn         1 JOH       0.349500
     26 H5           1.1150     3.5320    -0.3150 ha         1 JOH       0.151000
     27 H6           3.6030     3.4340    -0.3210 ha         1 JOH       0.139000
     28 H7           4.7650     1.2930    -0.0790 ha         1 JOH       0.155000
@<TRIPOS>BOND
     1     1     2 2   
     2     2     3 1   
     3     2    11 1   
     4     3     4 1   
     5     3    13 1   
     6     4     5 1   
     7     4     9 1   
     8     4    22 1   
     9     5     6 1   
    10     5    23 1   
    11     5    24 1   
    12     6     7 2   
    13     6     8 1   
    14     8     9 1   
    15     8    25 1   
    16     9    10 2   
    17    11    12 ar  
    18    11    15 ar  
    19    12    13 1   
    20    12    18 ar  
    21    13    14 2   
    22    15    16 ar  
    23    15    26 1   
    24    16    17 ar  
    25    16    27 1   
    26    17    18 ar  
    27    17    28 1   
    28    18    19 1   
    29    19    20 1   
    30    19    21 1   
@<TRIPOS>SUBSTRUCTURE
     1 JOH         1 TEMP              0 ****  ****    0 ROOT
