@<TRIPOS>MOLECULE
JOI
   45    46     1     0     0
SMALL
No Charge or Current Charge


@<TRIPOS>ATOM
      1 C02         33.5050     5.4990    18.2320 c          1 JOI       0.647700
      2 C03         32.1910     5.0480    17.5590 ce         1 JOI       0.330300
      3 C04         31.2650     4.1720    18.4060 c5         1 JOI       0.013000
      4 C06         29.5110     6.4760    18.3170 c5         1 JOI       0.067300
      5 C07         28.0690     6.1360    17.8240 c5         1 JOI      -0.086400
      6 C08         27.1860     6.5000    19.0450 c5         1 JOI       0.229800
      7 C11         26.0490     8.0730    21.1930 c3         1 JOI      -0.184400
      8 C13         29.3000     7.8040    19.1200 c5         1 JOI       0.242800
      9 C15         30.6740     4.3170    16.0470 c5         1 JOI       0.099500
     10 C16         30.5240     3.3880    17.2940 c5         1 JOI      -0.100400
     11 C17         30.6870     3.6350    14.6440 c3         1 JOI      -0.208700
     12 C18         29.2970     3.0520    14.3210 c          1 JOI       0.721000
     13 C21         31.7930     2.5740    14.4010 c3         1 JOI       0.200300
     14 C23         31.8080     2.0000    12.9660 c3         1 JOI      -0.077100
     15 N09         27.8570     7.7380    19.4850 nh         1 JOI      -0.769600
     16 N12         28.0610     9.4310    21.0140 n2         1 JOI      -0.879100
     17 N14         31.9200     5.1010    16.2770 n2         1 JOI      -0.600900
     18 O01         33.7030     5.2450    19.4170 o          1 JOI      -0.710500
     19 O19         28.6490     3.5750    13.4270 o          1 JOI      -0.748500
     20 O20         28.9000     2.0830    14.9510 o          1 JOI      -0.748500
     21 O22         33.0520     3.1900    14.6530 oh         1 JOI      -0.730000
     22 O24         34.3400     6.1030    17.5630 o          1 JOI      -0.710500
     23 S05         30.0540     5.1230    19.5180 ss         1 JOI      -0.473000
     24 H041        31.8400     3.4830    19.0400 h1         1 JOI       0.102700
     25 H061        30.2220     6.6380    17.5020 h1         1 JOI       0.115700
     26 H072        27.8010     6.7530    16.9580 hc         1 JOI       0.068700
     27 H071        27.9470     5.0910    17.5230 hc         1 JOI       0.068700
     28 H082        26.1390     6.6620    18.7530 h1         1 JOI       0.031200
     29 H081        27.2190     5.7240    19.8230 h1         1 JOI       0.031200
     30 H112        25.7870     8.7410    22.0220 hc         1 JOI       0.041367
     31 H111        25.2490     8.1500    20.4470 hc         1 JOI       0.041367
     32 H113        26.0520     7.0510    21.5890 hc         1 JOI       0.041367
     33 H132        29.9630     7.8370    19.9970 h1         1 JOI       0.062200
     34 H131        29.5080     8.6900    18.5040 h1         1 JOI       0.062200
     35 H151        29.8350     5.0240    16.0230 h1         1 JOI       0.054700
     36 H162        29.4800     3.1680    17.5420 hc         1 JOI       0.063200
     37 H161        31.0180     2.4250    17.1340 hc         1 JOI       0.063200
     38 H171        30.8540     4.4410    13.9180 hc         1 JOI       0.045700
     39 H211        31.6460     1.7370    15.0960 h1         1 JOI       0.027700
     40 H231        32.6430     1.3000    12.8400 hc         1 JOI       0.022367
     41 H233        30.8830     1.4530    12.7520 hc         1 JOI       0.022367
     42 H232        31.9150     2.8000    12.2230 hc         1 JOI       0.022367
     43 H121        27.5470     9.8460    21.8000 hn         1 JOI       0.353400
     44 H221        32.8090     3.9730    15.2180 ho         1 JOI       0.487000
     45 C10         27.3910     8.4290    20.5920 c2         1 JOI       0.645200
@<TRIPOS>BOND
     1     1     2 1   
     2     1    18 1   
     3     1    22 1   
     4     2     3 1   
     5     2    17 2   
     6     3    10 1   
     7     3    23 1   
     8     3    24 1   
     9     4     5 1   
    10     4     8 1   
    11     4    23 1   
    12     4    25 1   
    13     5     6 1   
    14     5    26 1   
    15     5    27 1   
    16     6    15 1   
    17     6    28 1   
    18     6    29 1   
    19     7    30 1   
    20     7    31 1   
    21     7    32 1   
    22     7    45 1   
    23     8    15 1   
    24     8    33 1   
    25     8    34 1   
    26     9    10 1   
    27     9    11 1   
    28     9    17 1   
    29     9    35 1   
    30    10    36 1   
    31    10    37 1   
    32    11    12 1   
    33    11    13 1   
    34    11    38 1   
    35    12    19 1   
    36    12    20 1   
    37    13    14 1   
    38    13    21 1   
    39    13    39 1   
    40    14    40 1   
    41    14    41 1   
    42    14    42 1   
    43    15    45 1   
    44    16    43 1   
    45    16    45 2   
    46    21    44 1   
@<TRIPOS>SUBSTRUCTURE
     1 JOI         1 TEMP              0 ****  ****    0 ROOT
