@<TRIPOS>MOLECULE
JOI
   45    46     1     0     0
SMALL
bcc


@<TRIPOS>ATOM
      1 C02         33.3390     5.4310    18.2510 c          1 JOI       0.858300
      2 C03         32.0990     4.8490    17.5720 ce         1 JOI       0.330300
      3 C04         31.0540     4.0730    18.3230 c5         1 JOI      -0.034900
      4 C06         29.4920     6.5020    18.3030 c5         1 JOI       0.019400
      5 C07         28.0770     6.2250    17.8020 c5         1 JOI      -0.086400
      6 C08         27.2070     6.5650    19.0080 c5         1 JOI       0.229800
      7 C11         26.1330     8.0860    21.1890 c3         1 JOI      -0.184400
      8 C13         29.2920     7.7750    19.1190 c5         1 JOI       0.242800
      9 C15         30.6110     4.2870    15.9770 c5         1 JOI       0.099500
     10 C16         30.2950     3.3970    17.1870 c5         1 JOI      -0.100400
     11 C17         30.6810     3.5780    14.6100 c3         1 JOI      -0.208700
     12 C18         29.3400     2.8170    14.4660 c          1 JOI       0.931600
     13 C21         31.9500     2.7420    14.4110 c3         1 JOI       0.177100
     14 C23         31.9430     1.9790    13.0960 c3         1 JOI      -0.077100
     15 N09         27.9690     7.6050    19.6840 nh         1 JOI      -0.769600
     16 N12         28.2590     9.3510    21.1210 n2         1 JOI      -0.879100
     17 N14         31.8550     4.9790    16.3310 n2         1 JOI      -0.600900
     18 O01         33.6510     4.8700    19.3170 o          1 JOI      -0.815800
     19 O19         28.3560     3.5150    14.1480 o          1 JOI      -0.853800
     20 O20         29.3330     1.5980    14.7300 o          1 JOI      -0.853800
     21 O22         33.1030     3.5760    14.3810 oh         1 JOI      -0.667800
     22 O24         33.9010     6.3730    17.6740 o          1 JOI      -0.815800
     23 S05         30.1090     5.1900    19.4180 ss         1 JOI      -0.377200
     24 H041        31.4960     3.3680    19.0270 h1         1 JOI       0.102700
     25 H061        30.2170     6.6640    17.5060 h1         1 JOI       0.115700
     26 H072        27.8550     6.9040    16.9750 hc         1 JOI       0.068700
     27 H071        27.9200     5.2080    17.4480 hc         1 JOI       0.068700
     28 H082        26.2180     6.9110    18.7030 h1         1 JOI       0.031200
     29 H081        27.0670     5.6890    19.6490 h1         1 JOI       0.031200
     30 H112        25.8930     8.7020    22.0530 hc         1 JOI       0.041367
     31 H111        25.3800     8.2750    20.4220 hc         1 JOI       0.041367
     32 H113        26.0420     7.0390    21.4790 hc         1 JOI       0.041367
     33 H132        30.0440     7.9100    19.8960 h1         1 JOI       0.062200
     34 H131        29.3400     8.6530    18.4640 h1         1 JOI       0.062200
     35 H151        29.8400     5.0590    15.8660 h1         1 JOI       0.054700
     36 H162        29.2290     3.2850    17.3750 hc         1 JOI       0.063200
     37 H161        30.7030     2.3950    17.0350 hc         1 JOI       0.063200
     38 H171        30.7060     4.3680    13.8490 hc         1 JOI       0.045700
     39 H211        32.0370     2.0120    15.2310 h1         1 JOI       0.027700
     40 H231        32.9090     1.5000    12.9280 hc         1 JOI       0.022367
     41 H233        31.1800     1.2060    13.0950 hc         1 JOI       0.022367
     42 H232        31.7520     2.6530    12.2570 hc         1 JOI       0.022367
     43 H121        27.7870     9.8370    21.8730 hn         1 JOI       0.353400
     44 H221        32.9640     4.2790    15.0360 ho         1 JOI       0.448000
     45 C10         27.5140     8.4020    20.6810 c2         1 JOI       0.645200
@<TRIPOS>BOND
     1     1     2 1   
     2     1    18 1   
     3     1    22 1   
     4     2     3 1   
     5     2    17 2   
     6     3    10 1   
     7     3    23 1   
     8     3    24 1   
     9     4     5 1   
    10     4     8 1   
    11     4    23 1   
    12     4    25 1   
    13     5     6 1   
    14     5    26 1   
    15     5    27 1   
    16     6    15 1   
    17     6    28 1   
    18     6    29 1   
    19     7    30 1   
    20     7    31 1   
    21     7    32 1   
    22     7    45 1   
    23     8    15 1   
    24     8    33 1   
    25     8    34 1   
    26     9    10 1   
    27     9    11 1   
    28     9    17 1   
    29     9    35 1   
    30    10    36 1   
    31    10    37 1   
    32    11    12 1   
    33    11    13 1   
    34    11    38 1   
    35    12    19 1   
    36    12    20 1   
    37    13    14 1   
    38    13    21 1   
    39    13    39 1   
    40    14    40 1   
    41    14    41 1   
    42    14    42 1   
    43    15    45 1   
    44    16    43 1   
    45    16    45 2   
    46    21    44 1   
@<TRIPOS>SUBSTRUCTURE
     1 JOI         1 TEMP              0 ****  ****    0 ROOT
