@<TRIPOS>MOLECULE
JOJ
   16    16     1     0     0
SMALL
No Charge or Current Charge


@<TRIPOS>ATOM
      1 C10          0.4490    -0.3700    -0.7040 cc         1 JOJ      -0.013000
      2 N01         -3.0800    -0.7780     0.1540 nt         1 JOJ      -0.500000
      3 C02         -2.8480     0.4860    -0.2630 cs         1 JOJ       0.344400
      4 S03         -3.6390     1.7770     0.4400 s          1 JOJ      -0.498400
      5 C04         -1.8030     0.6390    -1.3580 c3         1 JOJ       0.018600
      6 N05         -0.4300     0.6830    -0.8240 na         1 JOJ      -0.148500
      7 C06          0.2170     1.8000    -0.3260 cc         1 JOJ       0.434400
      8 N07          1.4450     1.5070     0.0890 nd         1 JOJ      -0.644000
      9 C08          1.5870     0.1550    -0.1470 cd         1 JOJ       0.359000
     10 Cl09         3.0340    -0.7210     0.2330 cl         1 JOJ      -0.116000
     11 Cl11         0.1370    -2.0180    -1.1690 cl         1 JOJ      -0.115000
     12 H011        -3.7500    -0.9520     0.8900 hn         1 JOJ       0.326500
     13 H012        -2.5790    -1.5550    -0.2550 hn         1 JOJ       0.326500
     14 H041        -1.9070    -0.1940    -2.0640 h1         1 JOJ       0.081200
     15 H042        -2.0140     1.5700    -1.8980 h1         1 JOJ       0.081200
     16 H061        -0.2540     2.7760    -0.2950 h5         1 JOJ       0.064100
@<TRIPOS>BOND
     1     1     6 1   
     2     1     9 2   
     3     1    11 1   
     4     2     3 1   
     5     2    12 1   
     6     2    13 1   
     7     3     4 2   
     8     3     5 1   
     9     5     6 1   
    10     5    14 1   
    11     5    15 1   
    12     6     7 1   
    13     7     8 2   
    14     7    16 1   
    15     8     9 1   
    16     9    10 1   
@<TRIPOS>SUBSTRUCTURE
     1 JOJ         1 TEMP              0 ****  ****    0 ROOT
