@<TRIPOS>MOLECULE
JOJ
   16    16     1     0     0
SMALL
bcc


@<TRIPOS>ATOM
      1 C10          0.5870    -0.2580    -0.4000 cc         1 JOJ      -0.119200
      2 N01         -3.6820    -0.5720    -0.2730 nt         1 JOJ      -0.567000
      3 C02         -2.5750     0.0800     0.0170 cs         1 JOJ       0.411400
      4 S03         -2.1750     0.6140     1.5300 s          1 JOJ      -0.498400
      5 C04         -1.7010     0.3580    -1.1940 c3         1 JOJ      -0.010700
      6 N05         -0.3400     0.6410    -0.8460 na         1 JOJ      -0.169900
      7 C06          0.2320     1.8590    -0.7470 cc         1 JOJ       0.434400
      8 N07          1.4590     1.7920    -0.2990 nd         1 JOJ      -0.644000
      9 C08          1.6850     0.4790    -0.0790 cd         1 JOJ       0.424300
     10 CL09         3.1680    -0.1190     0.5130 cl         1 JOJ      -0.116000
     11 CL11         0.2970    -1.9220    -0.3200 cl         1 JOJ      -0.023400
     12 H011        -4.3670    -0.7630     0.4420 hn         1 JOJ       0.326500
     13 H012        -3.8880    -0.8950    -1.2060 hn         1 JOJ       0.326500
     14 H041        -1.7380    -0.4770    -1.8950 h1         1 JOJ       0.081200
     15 H042        -2.1070     1.2270    -1.7140 h1         1 JOJ       0.081200
     16 H061        -0.2900     2.7610    -1.0260 h5         1 JOJ       0.064100
@<TRIPOS>BOND
     1     1     6 1   
     2     1     9 2   
     3     1    11 1   
     4     2     3 1   
     5     2    12 1   
     6     2    13 1   
     7     3     4 2   
     8     3     5 1   
     9     5     6 1   
    10     5    14 1   
    11     5    15 1   
    12     6     7 1   
    13     7     8 2   
    14     7    16 1   
    15     8     9 1   
    16     9    10 1   
@<TRIPOS>SUBSTRUCTURE
     1 JOJ         1 TEMP              0 ****  ****    0 ROOT
