@<TRIPOS>MOLECULE
JOK
   32    33     1     0     0
SMALL
bcc


@<TRIPOS>ATOM
      1 C4          -3.3650     1.0010     0.1390 c          1 JOK       0.689500
      2 C5          -0.2700    -0.1390    -0.8460 c          1 JOK       0.677100
      3 C6           1.0910    -0.3740    -0.2290 c3         1 JOK      -0.153400
      4 C11          6.0170    -0.4870     0.8460 ca         1 JOK      -0.127000
      5 C7           2.1880     0.4710    -0.8740 c3         1 JOK      -0.020100
      6 C8           3.5350     0.1540    -0.2860 ca         1 JOK      -0.087300
      7 C9           3.9530     0.7500     0.9030 ca         1 JOK      -0.124500
      8 C10          5.1820     0.4340     1.4660 ca         1 JOK      -0.127000
      9 C12          5.6120    -1.0880    -0.3390 ca         1 JOK      -0.127000
     10 C13          4.3800    -0.7690    -0.8970 ca         1 JOK      -0.124500
     11 N1          -4.6340     0.6310     0.5020 ns         1 JOK      -0.618500
     12 N2          -1.3100    -0.3450    -0.0080 ns         1 JOK      -0.565900
     13 C3          -2.6780    -0.2460    -0.4080 c5         1 JOK       0.021700
     14 C1          -4.8720    -0.7240     0.4420 c          1 JOK       0.715500
     15 C2          -3.5800    -1.3930     0.0440 c5         1 JOK      -0.186400
     16 O1          -5.9280    -1.2480     0.6900 o          1 JOK      -0.569500
     17 O2          -2.8990     2.1080     0.2200 o          1 JOK      -0.556500
     18 O3          -0.4170     0.1710    -2.0170 o          1 JOK      -0.587100
     19 H1           1.0610    -0.1980     0.8490 hc         1 JOK       0.061700
     20 H2           1.3220    -1.4370    -0.3560 hc         1 JOK       0.061700
     21 H4           2.2020     0.2910    -1.9490 hc         1 JOK       0.065200
     22 H5           1.9620     1.5310    -0.7310 hc         1 JOK       0.065200
     23 H6           3.3090     1.4720     1.3920 ha         1 JOK       0.130000
     24 H7           5.4890     0.9100     2.3880 ha         1 JOK       0.131000
     25 H8           6.2560    -1.8040    -0.8320 ha         1 JOK       0.131000
     26 H9           4.0760    -1.2400    -1.8250 ha         1 JOK       0.130000
     27 H10         -5.3320     1.2940     0.8190 hn         1 JOK       0.344500
     28 H11         -1.1190    -0.5560     0.9590 hn         1 JOK       0.317500
     29 H12         -2.7070    -0.1590    -1.4980 h1         1 JOK       0.120700
     30 H13         -3.7470    -2.1470    -0.7230 hc         1 JOK       0.090700
     31 H14         -3.1720    -1.9020     0.9230 hc         1 JOK       0.090700
     32 H3           6.9770    -0.7320     1.2800 ha         1 JOK       0.131000
@<TRIPOS>BOND
     1     1    11 1   
     2     1    13 1   
     3     1    17 2   
     4     2     3 1   
     5     2    12 1   
     6     2    18 2   
     7     3     5 1   
     8     3    19 1   
     9     3    20 1   
    10     4     8 ar  
    11     4     9 ar  
    12     4    32 1   
    13     5     6 1   
    14     5    21 1   
    15     5    22 1   
    16     6     7 ar  
    17     6    10 ar  
    18     7     8 ar  
    19     7    23 1   
    20     8    24 1   
    21     9    10 ar  
    22     9    25 1   
    23    10    26 1   
    24    11    14 1   
    25    11    27 1   
    26    12    13 1   
    27    12    28 1   
    28    13    15 1   
    29    13    29 1   
    30    14    15 1   
    31    14    16 2   
    32    15    30 1   
    33    15    31 1   
@<TRIPOS>SUBSTRUCTURE
     1 JOK         1 TEMP              0 ****  ****    0 ROOT
