@<TRIPOS>MOLECULE
JOK
   32    33     1     0     0
SMALL
No Charge or Current Charge


@<TRIPOS>ATOM
      1 C4          -3.3710     1.1390     0.5640 c          1 JOK       0.547000
      2 C5          -0.3450    -0.5840    -0.8370 c          1 JOK       0.610100
      3 C6           1.0570    -0.7900    -0.2570 c3         1 JOK      -0.153400
      4 C11          6.0430    -0.3210     0.8130 ca         1 JOK      -0.109000
      5 C7           2.0630     0.2290    -0.8360 c3         1 JOK      -0.020100
      6 C8           3.4600     0.0390    -0.2600 ca         1 JOK      -0.087300
      7 C9           3.8550     0.7430     0.8950 ca         1 JOK      -0.106500
      8 C10          5.1430     0.5640     1.4290 ca         1 JOK      -0.109000
      9 C12          5.6540    -1.0280    -0.3380 ca         1 JOK      -0.109000
     10 C13          4.3660    -0.8490    -0.8720 ca         1 JOK      -0.106500
     11 N1          -4.5590     0.5190     0.7600 ns         1 JOK      -0.484500
     12 N2          -1.2570    -0.0250     0.0390 ns         1 JOK      -0.498900
     13 C3          -2.6450     0.1970    -0.4310 c5         1 JOK       0.021700
     14 C1          -4.7890    -0.7180     0.2550 c          1 JOK       0.573000
     15 C2          -3.4170    -1.1570    -0.2730 c5         1 JOK      -0.186400
     16 O1          -5.8930    -1.2070     0.0910 o          1 JOK      -0.494000
     17 O2          -3.0260     2.1990     1.0640 o          1 JOK      -0.481000
     18 O3          -0.6330    -0.9130    -1.9790 o          1 JOK      -0.587100
     19 H1           1.0350    -0.6750     0.8330 hc         1 JOK       0.061700
     20 H2           1.3990    -1.7990    -0.5160 hc         1 JOK       0.061700
     21 H4           2.0910     0.1310    -1.9290 hc         1 JOK       0.065200
     22 H5           1.7050     1.2460    -0.6320 hc         1 JOK       0.065200
     23 H6           3.1630     1.4290     1.3800 ha         1 JOK       0.112000
     24 H7           5.4420     1.1110     2.3210 ha         1 JOK       0.113000
     25 H8           6.3500    -1.7150    -0.8150 ha         1 JOK       0.113000
     26 H9           4.0720    -1.4020    -1.7620 ha         1 JOK       0.112000
     27 H10         -5.3000     1.0030     1.2460 hn         1 JOK       0.344500
     28 H11         -0.9220     0.2260     0.9630 hn         1 JOK       0.317500
     29 H12         -2.7310     0.6270    -1.4390 h1         1 JOK       0.120700
     30 H13         -3.5050    -1.7710    -1.1760 hc         1 JOK       0.090700
     31 H14         -2.9620    -1.7610     0.5190 hc         1 JOK       0.090700
     32 H3           7.0400    -0.4600     1.2260 ha         1 JOK       0.113000
@<TRIPOS>BOND
     1     1    11 1   
     2     1    13 1   
     3     1    17 2   
     4     2     3 1   
     5     2    12 1   
     6     2    18 2   
     7     3     5 1   
     8     3    19 1   
     9     3    20 1   
    10     4     8 ar  
    11     4     9 ar  
    12     4    32 1   
    13     5     6 1   
    14     5    21 1   
    15     5    22 1   
    16     6     7 ar  
    17     6    10 ar  
    18     7     8 ar  
    19     7    23 1   
    20     8    24 1   
    21     9    10 ar  
    22     9    25 1   
    23    10    26 1   
    24    11    14 1   
    25    11    27 1   
    26    12    13 1   
    27    12    28 1   
    28    13    15 1   
    29    13    29 1   
    30    14    15 1   
    31    14    16 2   
    32    15    30 1   
    33    15    31 1   
@<TRIPOS>SUBSTRUCTURE
     1 JOK         1 TEMP              0 ****  ****    0 ROOT
