@<TRIPOS>MOLECULE
JOM
   23    24     1     0     0
SMALL
No Charge or Current Charge


@<TRIPOS>ATOM
      1 C10          2.2040     1.0750    -0.1910 cc         1 JOM       0.557100
      2 N12          4.3850     1.1000    -0.0640 ns         1 JOM      -0.254400
      3 C13          4.2640    -0.2540     0.1190 cs         1 JOM       0.295000
      4 C17         -2.6110     1.2620     0.5980 ca         1 JOM      -0.027000
      5 F01         -4.9790    -0.1740     1.2270 f          1 JOM      -0.112000
      6 F03         -4.3890    -1.8750     0.0190 f          1 JOM      -0.112000
      7 F04         -5.1380    -0.0720    -0.9390 f          1 JOM      -0.112000
      8 C05         -2.9410     0.0380    -0.0210 ca         1 JOM      -0.217300
      9 C06         -1.9490    -0.6460    -0.7560 ca         1 JOM      -0.027000
     10 C07         -0.6480    -0.1230    -0.8480 ca         1 JOM      -0.155000
     11 C08         -0.3180     1.0840    -0.2110 ca         1 JOM       0.326000
     12 N09          0.9620     1.6210    -0.3010 nu         1 JOM      -0.895200
     13 N11          3.2340     1.8480    -0.2290 n2         1 JOM      -0.516300
     14 S14          5.5120    -1.3470     0.3430 s          1 JOM      -0.465400
     15 S15          2.5350    -0.6250     0.0760 ss         1 JOM      -0.042800
     16 C16         -1.3070     1.7790     0.4990 ca         1 JOM      -0.155000
     17 H121         5.3280     1.5040    -0.0700 hn         1 JOM       0.498000
     18 H171        -3.3610     1.8210     1.1550 ha         1 JOM       0.137000
     19 H061        -2.1820    -1.5800    -1.2640 ha         1 JOM       0.137000
     20 H071         0.0970    -0.6520    -1.4330 ha         1 JOM       0.132000
     21 H091         1.0130     2.6320    -0.1970 hn         1 JOM       0.518000
     22 H161        -1.0670     2.7200     0.9840 ha         1 JOM       0.132000
     23 C02         -4.3640    -0.5230     0.0740 c3         1 JOM       0.361300
@<TRIPOS>BOND
     1     1    12 1   
     2     1    13 2   
     3     1    15 1   
     4     2     3 1   
     5     2    13 1   
     6     2    17 1   
     7     3    14 2   
     8     3    15 1   
     9     4     8 ar  
    10     4    16 ar  
    11     4    18 1   
    12     5    23 1   
    13     6    23 1   
    14     7    23 1   
    15     8     9 ar  
    16     8    23 1   
    17     9    10 ar  
    18     9    19 1   
    19    10    11 ar  
    20    10    20 1   
    21    11    12 1   
    22    11    16 ar  
    23    12    21 1   
    24    16    22 1   
@<TRIPOS>SUBSTRUCTURE
     1 JOM         1 TEMP              0 ****  ****    0 ROOT
