@<TRIPOS>MOLECULE
JOM
   23    24     1     0     0
SMALL
abcg2


@<TRIPOS>ATOM
      1 C10          2.1370     1.1600    -0.1860 cc         1 JOM       0.557100
      2 N12          4.2850     0.9500    -0.1930 ns         1 JOM      -0.254400
      3 C13          4.0750    -0.3120     0.1740 cs         1 JOM       0.295000
      4 C17         -2.5950     1.2440     0.5960 ca         1 JOM      -0.027000
      5 F01         -4.8290    -0.3170     1.2100 f          1 JOM      -0.112000
      6 F03         -4.2010    -1.9050    -0.1010 f          1 JOM      -0.112000
      7 F04         -5.0130    -0.0900    -0.9180 f          1 JOM      -0.112000
      8 C05         -2.8470     0.0180    -0.0110 ca         1 JOM      -0.217300
      9 C06         -1.8340    -0.6140    -0.7200 ca         1 JOM      -0.027000
     10 C07         -0.5790    -0.0360    -0.8170 ca         1 JOM      -0.155000
     11 C08         -0.3160     1.1710    -0.1740 ca         1 JOM       0.326000
     12 N09          0.9350     1.7810    -0.2350 nu         1 JOM      -0.895200
     13 N11          3.2430     1.7780    -0.4110 n2         1 JOM      -0.516300
     14 S14          5.1990    -1.4900     0.4640 s          1 JOM      -0.465400
     15 S15          2.3420    -0.5130     0.2920 ss         1 JOM      -0.042800
     16 C16         -1.3390     1.8130     0.5230 ca         1 JOM      -0.155000
     17 H121         5.2140     1.3180    -0.3450 hn         1 JOM       0.498000
     18 H171        -3.3680     1.7630     1.1490 ha         1 JOM       0.137000
     19 H061        -2.0080    -1.5520    -1.2280 ha         1 JOM       0.137000
     20 H071         0.1710    -0.5220    -1.4270 ha         1 JOM       0.132000
     21 H091         0.9680     2.7870    -0.1430 hn         1 JOM       0.518000
     22 H161        -1.1440     2.7550     1.0200 ha         1 JOM       0.132000
     23 C02         -4.2160    -0.5760     0.0480 c3         1 JOM       0.361300
@<TRIPOS>BOND
     1     1    12 1   
     2     1    13 2   
     3     1    15 1   
     4     2     3 1   
     5     2    13 1   
     6     2    17 1   
     7     3    14 2   
     8     3    15 1   
     9     4     8 ar  
    10     4    16 ar  
    11     4    18 1   
    12     5    23 1   
    13     6    23 1   
    14     7    23 1   
    15     8     9 ar  
    16     8    23 1   
    17     9    10 ar  
    18     9    19 1   
    19    10    11 ar  
    20    10    20 1   
    21    11    12 1   
    22    11    16 ar  
    23    12    21 1   
    24    16    22 1   
@<TRIPOS>SUBSTRUCTURE
     1 JOM         1 TEMP              0 ****  ****    0 ROOT
