@<TRIPOS>MOLECULE
JON
   32    33     1     0     0
SMALL
abcg2


@<TRIPOS>ATOM
      1 C4           3.5040     0.2390     0.6090 c5         1 JON       0.147500
      2 C5          -3.1440     0.8350     0.5180 c          1 JON       0.541000
      3 C6          -4.5580    -0.8930    -0.0730 c          1 JON       0.573000
      4 C7          -3.1990    -1.3030    -0.5830 c5         1 JON      -0.183400
      5 C8           4.8250     0.9430     0.2090 c5         1 JON      -0.100400
      6 C9           5.8540    -0.1850     0.1760 c5         1 JON      -0.114400
      7 C10          4.9920    -1.3780    -0.2280 c5         1 JON       0.137800
      8 N1          -1.0030    -0.2710     0.0150 ns         1 JON      -0.487900
      9 N2          -4.4110     0.3160     0.5700 ns         1 JON      -0.484500
     10 C3           2.3800     0.7070    -0.2900 c3         1 JON       0.197600
     11 N3           3.7280    -1.2060     0.4820 n7         1 JON      -0.835400
     12 C1          -2.3400    -0.0490    -0.4320 c5         1 JON       0.038700
     13 C2           0.0510     0.4070    -0.4950 c          1 JON       0.652100
     14 O1           1.1650     0.1100     0.1680 os         1 JON      -0.445100
     15 O2          -0.0050     1.1670    -1.4390 o          1 JON      -0.537000
     16 O4          -2.7520     1.8130     1.0990 o          1 JON      -0.482000
     17 H1           3.2460     0.4760     1.6440 h1         1 JON       0.057700
     18 H2          -2.8330    -2.1200     0.0440 hc         1 JON       0.093700
     19 H3          -3.2570    -1.6730    -1.6050 hc         1 JON       0.093700
     20 H4           4.7340     1.3910    -0.7860 hc         1 JON       0.053200
     21 H5           5.0830     1.7470     0.8970 hc         1 JON       0.053200
     22 H6           6.6780     0.0100    -0.5110 hc         1 JON       0.050700
     23 H7           6.2780    -0.3510     1.1700 hc         1 JON       0.050700
     24 H8           4.8170    -1.3610    -1.3090 h1         1 JON       0.055700
     25 H9           5.4350    -2.3460     0.0100 h1         1 JON       0.055700
     26 H10         -0.8640    -0.8270     0.8460 hn         1 JON       0.331500
     27 H11         -5.1690     0.7620     1.0730 hn         1 JON       0.344500
     28 H12          2.3000     1.7970    -0.2550 h1         1 JON       0.054700
     29 H13          2.5780     0.4140    -1.3250 h1         1 JON       0.054700
     30 H14          3.8240    -1.6010     1.4080 hn         1 JON       0.406000
     31 H16         -2.3000     0.4820    -1.3850 h1         1 JON       0.119700
     32 O3          -5.5950    -1.4980    -0.1690 o          1 JON      -0.493000
@<TRIPOS>BOND
     1     1     5 1   
     2     1    10 1   
     3     1    11 1   
     4     1    17 1   
     5     2     9 1   
     6     2    12 1   
     7     2    16 2   
     8     3     4 1   
     9     3     9 1   
    10     3    32 2   
    11     4    12 1   
    12     4    18 1   
    13     4    19 1   
    14     5     6 1   
    15     5    20 1   
    16     5    21 1   
    17     6     7 1   
    18     6    22 1   
    19     6    23 1   
    20     7    11 1   
    21     7    24 1   
    22     7    25 1   
    23     8    12 1   
    24     8    13 1   
    25     8    26 1   
    26     9    27 1   
    27    10    14 1   
    28    10    28 1   
    29    10    29 1   
    30    11    30 1   
    31    12    31 1   
    32    13    14 1   
    33    13    15 2   
@<TRIPOS>SUBSTRUCTURE
     1 JON         1 TEMP              0 ****  ****    0 ROOT
