@<TRIPOS>MOLECULE
JON
   32    33     1     0     0
SMALL
No Charge or Current Charge


@<TRIPOS>ATOM
      1 C4           3.5620     0.2700     0.0670 c5         1 JON       0.147500
      2 C5          -3.3490     0.1380     1.3340 c          1 JON       0.541000
      3 C6          -4.3140    -1.0130    -0.4820 c          1 JON       0.573000
      4 C7          -2.9060    -0.6220    -0.9470 c5         1 JON      -0.183400
      5 C8           4.8930     0.6170    -0.6360 c5         1 JON      -0.100400
      6 C9           5.9030    -0.2360     0.1860 c5         1 JON      -0.114400
      7 C10          5.0460    -1.4340     0.7020 c5         1 JON       0.137800
      8 N1          -1.0540     0.2220     0.4330 ns         1 JON      -0.487900
      9 N2          -4.3520    -0.6090     0.8110 ns         1 JON      -0.484500
     10 C3           2.2900     0.7550    -0.6850 c3         1 JON       0.197600
     11 N3           3.6880    -1.2040     0.1550 n7         1 JON      -0.835400
     12 C1          -2.4750     0.4650     0.0960 c5         1 JON       0.038700
     13 C2          -0.0910     0.6850    -0.4250 c          1 JON       0.652100
     14 O1           1.1310     0.3580     0.0760 os         1 JON      -0.445100
     15 O2          -0.2960     1.2950    -1.4640 o          1 JON      -0.537000
     16 O4          -3.2340     0.4600     2.5060 o          1 JON      -0.482000
     17 H1           3.5430     0.7130     1.0740 h1         1 JON       0.057700
     18 H2          -2.2860    -1.5190    -0.8360 hc         1 JON       0.093700
     19 H3          -2.8950    -0.3160    -1.9980 hc         1 JON       0.093700
     20 H4           4.8810     0.3140    -1.6910 hc         1 JON       0.053200
     21 H5           5.1220     1.6880    -0.6030 hc         1 JON       0.053200
     22 H6           6.7510    -0.5660    -0.4240 hc         1 JON       0.050700
     23 H7           6.3140     0.3340     1.0280 hc         1 JON       0.050700
     24 H8           5.4480    -2.4040     0.3760 h1         1 JON       0.055700
     25 H9           5.0240    -1.4360     1.8010 h1         1 JON       0.055700
     26 H10         -0.7280    -0.2480     1.2690 hn         1 JON       0.331500
     27 H11         -5.1590    -0.8240     1.3770 hn         1 JON       0.344500
     28 H12          2.3310     1.8470    -0.7890 h1         1 JON       0.054700
     29 H13          2.2710     0.3120    -1.6900 h1         1 JON       0.054700
     30 H14          2.9690    -1.5890     0.7820 hn         1 JON       0.406000
     31 H16         -2.7040     1.4890    -0.2300 h1         1 JON       0.119700
     32 O3          -5.2840    -1.3850    -1.1210 o          1 JON      -0.493000
@<TRIPOS>BOND
     1     1     5 1   
     2     1    10 1   
     3     1    11 1   
     4     1    17 1   
     5     2     9 1   
     6     2    12 1   
     7     2    16 2   
     8     3     4 1   
     9     3     9 1   
    10     3    32 2   
    11     4    12 1   
    12     4    18 1   
    13     4    19 1   
    14     5     6 1   
    15     5    20 1   
    16     5    21 1   
    17     6     7 1   
    18     6    22 1   
    19     6    23 1   
    20     7    11 1   
    21     7    24 1   
    22     7    25 1   
    23     8    12 1   
    24     8    13 1   
    25     8    26 1   
    26     9    27 1   
    27    10    14 1   
    28    10    28 1   
    29    10    29 1   
    30    11    30 1   
    31    12    31 1   
    32    13    14 1   
    33    13    15 2   
@<TRIPOS>SUBSTRUCTURE
     1 JON         1 TEMP              0 ****  ****    0 ROOT
