@<TRIPOS>MOLECULE
JOP
   35    36     1     0     0
SMALL
No Charge or Current Charge


@<TRIPOS>ATOM
      1 C10          2.8480     0.1580    -1.5120 c5         1 JOP      -0.089400
      2 C13          2.3720     1.0800     1.2790 c5         1 JOP      -0.080400
      3 C15          4.0130    -0.4980     0.5200 c5         1 JOP      -0.082400
      4 C01         -5.4940     0.1930     0.0400 c3         1 JOP      -0.125100
      5 C02         -4.0880     0.5320    -0.4900 c3         1 JOP       0.147300
      6 O03         -3.7930     1.9050    -0.1860 oh         1 JOP      -0.666000
      7 C04         -2.9920    -0.3960     0.0950 c3         1 JOP       0.071000
      8 N05         -1.6400     0.0200    -0.2960 ns         1 JOP      -0.453900
      9 C06         -0.5070    -0.7300    -0.2030 cs         1 JOP       0.484400
     10 S07         -0.4920    -2.2970     0.3880 s          1 JOP      -0.698400
     11 N08          0.5790    -0.0350    -0.6590 ns         1 JOP      -0.443900
     12 C09          1.9030    -0.6720    -0.5830 c5         1 JOP       0.113700
     13 C11          3.9630     0.6440    -0.5250 c5         1 JOP      -0.077700
     14 C12          3.3460     1.8140     0.3060 c5         1 JOP      -0.082400
     15 C14          2.5050    -0.4270     0.8510 c5         1 JOP      -0.087700
     16 H102         3.2730    -0.4880    -2.2900 hc         1 JOP       0.049200
     17 H101         2.3560     0.9870    -2.0350 hc         1 JOP       0.049200
     18 H132         2.7010     1.2120     2.3170 hc         1 JOP       0.042700
     19 H131         1.3500     1.4720     1.2380 hc         1 JOP       0.042700
     20 H152         4.3240    -1.4610     0.0980 hc         1 JOP       0.055200
     21 H151         4.6600    -0.2750     1.3770 hc         1 JOP       0.055200
     22 H012        -5.7580    -0.8410    -0.2110 hc         1 JOP       0.048367
     23 H013        -5.5430     0.3040     1.1300 hc         1 JOP       0.048367
     24 H021        -4.0940     0.3910    -1.5810 h1         1 JOP       0.082700
     25 H031        -3.8960     2.0160     0.7850 ho         1 JOP       0.442000
     26 H042        -3.0550    -0.4010     1.1910 h1         1 JOP       0.072700
     27 H041        -3.1710    -1.4210    -0.2580 h1         1 JOP       0.072700
     28 H051        -1.5440     0.9610    -0.6580 hn         1 JOP       0.310500
     29 H081         0.4400     0.9100    -0.9920 hn         1 JOP       0.300500
     30 H091         1.9030    -1.7350    -0.8640 h1         1 JOP       0.097700
     31 H111         4.9190     0.8860    -1.0050 hc         1 JOP       0.068700
     32 H121         2.8350     2.5550    -0.3200 hc         1 JOP       0.042700
     33 H122         4.1210     2.3540     0.8630 hc         1 JOP       0.042700
     34 H141         2.1620    -1.1420     1.6080 hc         1 JOP       0.095700
     35 H011        -6.2460     0.8530    -0.4090 hc         1 JOP       0.048367
@<TRIPOS>BOND
     1     1    12 1   
     2     1    13 1   
     3     1    16 1   
     4     1    17 1   
     5     2    14 1   
     6     2    15 1   
     7     2    18 1   
     8     2    19 1   
     9     3    13 1   
    10     3    15 1   
    11     3    20 1   
    12     3    21 1   
    13     4     5 1   
    14     4    22 1   
    15     4    23 1   
    16     4    35 1   
    17     5     6 1   
    18     5     7 1   
    19     5    24 1   
    20     6    25 1   
    21     7     8 1   
    22     7    26 1   
    23     7    27 1   
    24     8     9 1   
    25     8    28 1   
    26     9    10 2   
    27     9    11 1   
    28    11    12 1   
    29    11    29 1   
    30    12    15 1   
    31    12    30 1   
    32    13    14 1   
    33    13    31 1   
    34    14    32 1   
    35    14    33 1   
    36    15    34 1   
@<TRIPOS>SUBSTRUCTURE
     1 JOP         1 TEMP              0 ****  ****    0 ROOT
