@<TRIPOS>MOLECULE
JOP
   35    36     1     0     0
SMALL
abcg2


@<TRIPOS>ATOM
      1 C10          2.8240     0.2270    -1.4800 c5         1 JOP      -0.089400
      2 C13          2.5190     1.0600     1.3060 c5         1 JOP      -0.080400
      3 C15          4.0090    -0.5690     0.4210 c5         1 JOP      -0.082400
      4 C01         -5.4940     0.0320    -0.0390 c3         1 JOP      -0.125100
      5 C02         -4.1210     0.4710    -0.5190 c3         1 JOP       0.147300
      6 O03         -3.9270     1.8670    -0.3830 oh         1 JOP      -0.666000
      7 C04         -3.0280    -0.3140     0.1980 c3         1 JOP       0.071000
      8 N05         -1.7260     0.1180    -0.2480 ns         1 JOP      -0.453900
      9 C06         -0.5970    -0.6000    -0.1630 cs         1 JOP       0.484400
     10 S07         -0.5800    -2.1840     0.4200 s          1 JOP      -0.698400
     11 N08          0.5110     0.0200    -0.5940 ns         1 JOP      -0.443900
     12 C09          1.8500    -0.5190    -0.5290 c5         1 JOP       0.113700
     13 C11          3.9890     0.6100    -0.5590 c5         1 JOP      -0.077700
     14 C12          3.5230     1.7570     0.3490 c5         1 JOP      -0.082400
     15 C14          2.5460    -0.4010     0.8410 c5         1 JOP      -0.087700
     16 H102         3.1480    -0.4270    -2.2910 hc         1 JOP       0.049200
     17 H101         2.3660     1.1050    -1.9440 hc         1 JOP       0.049200
     18 H132         2.8470     1.1340     2.3440 hc         1 JOP       0.042700
     19 H131         1.5180     1.4930     1.2650 hc         1 JOP       0.042700
     20 H152         4.2200    -1.5300    -0.0570 hc         1 JOP       0.055200
     21 H151         4.7120    -0.4320     1.2470 hc         1 JOP       0.055200
     22 H012        -5.6450    -1.0320    -0.2180 hc         1 JOP       0.048367
     23 H013        -5.6100     0.2090     1.0330 hc         1 JOP       0.048367
     24 H021        -4.0350     0.2730    -1.5910 h1         1 JOP       0.082700
     25 H031        -4.0730     2.1050     0.5400 ho         1 JOP       0.442000
     26 H042        -3.1320    -0.1920     1.2840 h1         1 JOP       0.072700
     27 H041        -3.1420    -1.3770    -0.0140 h1         1 JOP       0.072700
     28 H051        -1.6520     1.0950    -0.4930 hn         1 JOP       0.310500
     29 H081         0.4200     0.9720    -0.9190 hn         1 JOP       0.300500
     30 H091         1.7900    -1.5730    -0.7990 h1         1 JOP       0.097700
     31 H111         4.9200     0.8130    -1.0890 hc         1 JOP       0.068700
     32 H121         3.0690     2.5700    -0.2200 hc         1 JOP       0.042700
     33 H122         4.3640     2.1800     0.9010 hc         1 JOP       0.042700
     34 H141         2.1580    -1.1110     1.5710 hc         1 JOP       0.095700
     35 H011        -6.2800     0.5760    -0.5620 hc         1 JOP       0.048367
@<TRIPOS>BOND
     1     1    12 1   
     2     1    13 1   
     3     1    16 1   
     4     1    17 1   
     5     2    14 1   
     6     2    15 1   
     7     2    18 1   
     8     2    19 1   
     9     3    13 1   
    10     3    15 1   
    11     3    20 1   
    12     3    21 1   
    13     4     5 1   
    14     4    22 1   
    15     4    23 1   
    16     4    35 1   
    17     5     6 1   
    18     5     7 1   
    19     5    24 1   
    20     6    25 1   
    21     7     8 1   
    22     7    26 1   
    23     7    27 1   
    24     8     9 1   
    25     8    28 1   
    26     9    10 2   
    27     9    11 1   
    28    11    12 1   
    29    11    29 1   
    30    12    15 1   
    31    12    30 1   
    32    13    14 1   
    33    13    31 1   
    34    14    32 1   
    35    14    33 1   
    36    15    34 1   
@<TRIPOS>SUBSTRUCTURE
     1 JOP         1 TEMP              0 ****  ****    0 ROOT
