@<TRIPOS>MOLECULE
JOQ
   35    36     1     0     0
SMALL
bcc


@<TRIPOS>ATOM
      1 C4          -3.8500    -0.1330    -0.9980 c          1 JOQ       0.682500
      2 C5          -1.0370    -1.0400     0.5260 c          1 JOQ       0.765100
      3 C6           1.2400    -1.6600     0.4730 c3         1 JOQ       0.210700
      4 C11          4.2680    -0.0270    -1.1140 ca         1 JOQ      -0.122000
      5 C7           2.5630    -0.9790     0.3080 ca         1 JOQ      -0.105300
      6 C8           3.3170    -0.6140     1.4170 ca         1 JOQ      -0.105000
      7 C9           4.5360     0.0330     1.2620 ca         1 JOQ      -0.122000
      8 C10          5.0310     0.3300    -0.0040 ca         1 JOQ      -0.073300
      9 C12          3.0530    -0.6740    -0.9600 ca         1 JOQ      -0.105000
     10 C13          6.3770     0.9920    -0.1630 c3         1 JOQ       0.194100
     11 N1          -5.0270     0.5670    -0.9650 ns         1 JOQ      -0.618500
     12 N2          -1.8730     0.0210     0.4650 ns         1 JOQ      -0.553900
     13 C3          -3.2920    -0.1320     0.4230 c5         1 JOQ       0.038700
     14 N3           6.3670     1.9920    -1.2160 n8         1 JOQ      -0.886800
     15 C1          -5.2740     1.2050     0.2310 c          1 JOQ       0.714500
     16 C2          -4.0800     0.9710     1.1240 c5         1 JOQ      -0.182400
     17 O1          -6.2620     1.8490     0.4740 o          1 JOQ      -0.567500
     18 O2          -3.3640    -0.6600    -1.9650 o          1 JOQ      -0.554500
     19 O3           0.2310    -0.6410     0.4200 os         1 JOQ      -0.430900
     20 O4          -1.3820    -2.1920     0.6800 o          1 JOQ      -0.579000
     21 H1           1.0750    -2.3880    -0.3230 h1         1 JOQ       0.058700
     22 H2           1.1920    -2.1850     1.4300 h1         1 JOQ       0.058700
     23 H4           2.9510    -0.8340     2.4130 ha         1 JOQ       0.134000
     24 H5           5.1070     0.3100     2.1400 ha         1 JOQ       0.140000
     25 H6           2.4810    -0.9510    -1.8380 ha         1 JOQ       0.134000
     26 H7           6.6960     1.3730     0.8160 h1         1 JOQ       0.036200
     27 H8           7.1080     0.2260    -0.4370 h1         1 JOQ       0.036200
     28 H9          -5.6430     0.6520    -1.7650 hn         1 JOQ       0.345500
     29 H10         -1.4870     0.9270     0.2430 hn         1 JOQ       0.331500
     30 H11         -3.5530    -1.1000     0.8570 h1         1 JOQ       0.117700
     31 H12          5.8170     2.7890    -0.9190 hn         1 JOQ       0.342300
     32 H13          7.3080     2.3400    -1.3540 hn         1 JOQ       0.342300
     33 H15         -4.3880     0.7160     2.1360 hc         1 JOQ       0.092700
     34 H16         -3.5100     1.9030     1.1730 hc         1 JOQ       0.092700
     35 H3           4.6320     0.2040    -2.1070 ha         1 JOQ       0.140000
@<TRIPOS>BOND
     1     1    11 1   
     2     1    13 1   
     3     1    18 2   
     4     2    12 1   
     5     2    19 1   
     6     2    20 2   
     7     3     5 1   
     8     3    19 1   
     9     3    21 1   
    10     3    22 1   
    11     4     8 ar  
    12     4     9 ar  
    13     4    35 1   
    14     5     6 ar  
    15     5     9 ar  
    16     6     7 ar  
    17     6    23 1   
    18     7     8 ar  
    19     7    24 1   
    20     8    10 1   
    21     9    25 1   
    22    10    14 1   
    23    10    26 1   
    24    10    27 1   
    25    11    15 1   
    26    11    28 1   
    27    12    13 1   
    28    12    29 1   
    29    13    16 1   
    30    13    30 1   
    31    14    31 1   
    32    14    32 1   
    33    15    16 1   
    34    15    17 2   
    35    16    33 1   
    36    16    34 1   
@<TRIPOS>SUBSTRUCTURE
     1 JOQ         1 TEMP              0 ****  ****    0 ROOT
