@<TRIPOS>MOLECULE
JOQ
   35    36     1     0     0
SMALL
No Charge or Current Charge


@<TRIPOS>ATOM
      1 C4          -4.0400     0.6580    -1.2650 c          1 JOQ       0.540000
      2 C5          -1.1140    -1.0320     0.3450 c          1 JOQ       0.649100
      3 C6           1.1910    -1.4890     0.7860 c3         1 JOQ       0.233900
      4 C11          4.5270    -0.6600    -0.9210 ca         1 JOQ      -0.104000
      5 C7           2.5540    -0.8720     0.5010 ca         1 JOQ      -0.105300
      6 C8           3.1120     0.0640     1.3940 ca         1 JOQ      -0.087000
      7 C9           4.3710     0.6320     1.1320 ca         1 JOQ      -0.104000
      8 C10          5.0870     0.2730    -0.0270 ca         1 JOQ      -0.073300
      9 C12          3.2680    -1.2290    -0.6590 ca         1 JOQ      -0.087000
     10 C13          6.4560     0.8820    -0.3080 c3         1 JOQ       0.194100
     11 N1          -5.0710     1.1800    -0.5550 ns         1 JOQ      -0.484500
     12 N2          -1.9140    -0.1110    -0.2790 ns         1 JOQ      -0.486900
     13 C3          -3.3790    -0.3150    -0.2550 c5         1 JOQ       0.038700
     14 N3           6.3570     2.0560    -1.1970 n8         1 JOQ      -0.997200
     15 C1          -5.2070     0.9170     0.7680 c          1 JOQ       0.572000
     16 C2          -3.9050     0.1910     1.1310 c5         1 JOQ      -0.182400
     17 O1          -6.2400     1.0530     1.3990 o          1 JOQ      -0.492000
     18 O2          -3.7680     0.9180    -2.4260 o          1 JOQ      -0.479000
     19 O3           0.1830    -0.6510     0.1980 os         1 JOQ      -0.454100
     20 O4          -1.5030    -2.0300     0.9330 o          1 JOQ      -0.530000
     21 H1           1.1500    -2.5020     0.3640 h1         1 JOQ       0.058700
     22 H2           1.0450    -1.5710     1.8720 h1         1 JOQ       0.058700
     23 H4           2.5690     0.3520     2.2920 ha         1 JOQ       0.116000
     24 H5           4.7900     1.3520     1.8310 ha         1 JOQ       0.122000
     25 H6           2.8470    -1.9460    -1.3600 ha         1 JOQ       0.116000
     26 H7           6.9250     1.1910     0.6360 h1         1 JOQ       0.036200
     27 H8           7.1060     0.1320    -0.7810 h1         1 JOQ       0.036200
     28 H9          -5.7730     1.7300    -1.0280 hn         1 JOQ       0.345500
     29 H10         -1.4430     0.6570    -0.7440 hn         1 JOQ       0.331500
     30 H11         -3.7060    -1.3380    -0.4930 h1         1 JOQ       0.117700
     31 H12          5.7960     2.7760    -0.7270 hn         1 JOQ       0.397500
     32 H13          7.2860     2.4870    -1.2830 hn         1 JOQ       0.397500
     33 H15         -4.0660    -0.5750     1.8970 hc         1 JOQ       0.092700
     34 H16         -3.2310     0.9540     1.5350 hc         1 JOQ       0.092700
     35 H3           5.0680    -0.9430    -1.8210 ha         1 JOQ       0.122000
@<TRIPOS>BOND
     1     1    11 1   
     2     1    13 1   
     3     1    18 2   
     4     2    12 1   
     5     2    19 1   
     6     2    20 2   
     7     3     5 1   
     8     3    19 1   
     9     3    21 1   
    10     3    22 1   
    11     4     8 ar  
    12     4     9 ar  
    13     4    35 1   
    14     5     6 ar  
    15     5     9 ar  
    16     6     7 ar  
    17     6    23 1   
    18     7     8 ar  
    19     7    24 1   
    20     8    10 1   
    21     9    25 1   
    22    10    14 1   
    23    10    26 1   
    24    10    27 1   
    25    11    15 1   
    26    11    28 1   
    27    12    13 1   
    28    12    29 1   
    29    13    16 1   
    30    13    30 1   
    31    14    31 1   
    32    14    32 1   
    33    15    16 1   
    34    15    17 2   
    35    16    33 1   
    36    16    34 1   
@<TRIPOS>SUBSTRUCTURE
     1 JOQ         1 TEMP              0 ****  ****    0 ROOT
