@<TRIPOS>MOLECULE
JOR
   22    22     1     0     0
SMALL
abcg2


@<TRIPOS>ATOM
      1 CAA         -2.1740    20.9970     5.7980 c3         1 JOR      -0.331100
      2 SAO         -3.3390    22.0510     6.6220 s6         1 JOR       1.187100
      3 OAC         -2.6390    22.7290     7.7040 o          1 JOR      -0.576000
      4 OAD         -4.5380    21.2840     6.9300 o          1 JOR      -0.576000
      5 NAJ         -3.7820    23.1190     5.4270 nu         1 JOR      -0.876100
      6 CAM         -2.9860    24.2730     5.1860 ca         1 JOR       0.223000
      7 CAH         -3.1020    25.3800     6.0240 ca         1 JOR      -0.101000
      8 CAG         -2.3490    26.5200     5.8090 ca         1 JOR      -0.179000
      9 CAL         -1.4500    26.5110     4.7580 ca         1 JOR       0.153000
     10 FAF         -0.7040    27.6050     4.5360 f          1 JOR      -0.202000
     11 CAI         -1.2920    25.4190     3.9320 ca         1 JOR      -0.135000
     12 CAN         -2.0860    24.2890     4.1180 ca         1 JOR      -0.072600
     13 CAK         -1.9460    23.1440     3.1170 c          1 JOR       0.717600
     14 OAE         -0.8080    22.6450     3.0390 o          1 JOR      -0.701000
     15 OAB         -2.9610    22.8620     2.4650 o          1 JOR      -0.701000
     16 H1          -1.8190    20.2680     6.5240 h1         1 JOR       0.111033
     17 H2          -2.6750    20.4960     4.9730 h1         1 JOR       0.111033
     18 H3          -1.3400    21.5860     5.4230 h1         1 JOR       0.111033
     19 H4          -4.7870    23.2610     5.4240 hn         1 JOR       0.488000
     20 H5          -3.7990    25.3520     6.8510 ha         1 JOR       0.101000
     21 H6          -2.4490    27.3880     6.4470 ha         1 JOR       0.112000
     22 H7          -0.5690    25.4550     3.1260 ha         1 JOR       0.138000
@<TRIPOS>BOND
     1     1     2 1   
     2     1    16 1   
     3     1    17 1   
     4     1    18 1   
     5     2     3 2   
     6     2     4 2   
     7     2     5 1   
     8     5     6 1   
     9     5    19 1   
    10     6     7 ar  
    11     6    12 ar  
    12     7     8 ar  
    13     7    20 1   
    14     8     9 ar  
    15     8    21 1   
    16     9    10 1   
    17     9    11 ar  
    18    11    12 ar  
    19    11    22 1   
    20    12    13 1   
    21    13    14 1   
    22    13    15 1   
@<TRIPOS>SUBSTRUCTURE
     1 JOR         1 TEMP              0 ****  ****    0 ROOT
