@<TRIPOS>MOLECULE
JOR
   22    22     1     0     0
SMALL
No Charge or Current Charge


@<TRIPOS>ATOM
      1 CAA         -1.9960    21.1690     5.8840 c3         1 JOR      -0.331100
      2 SAO         -3.4660    21.9320     6.5280 s6         1 JOR       1.187100
      3 OAC         -3.1540    22.5960     7.7940 o          1 JOR      -0.576000
      4 OAD         -4.5810    20.9870     6.4460 o          1 JOR      -0.576000
      5 NAJ         -3.8550    23.1500     5.4700 nu         1 JOR      -0.876100
      6 CAM         -3.0260    24.2340     5.1840 ca         1 JOR       0.223000
      7 CAH         -3.0830    25.3600     6.0310 ca         1 JOR      -0.101000
      8 CAG         -2.2570    26.4750     5.8030 ca         1 JOR      -0.179000
      9 CAL         -1.3700    26.4700     4.7190 ca         1 JOR       0.153000
     10 FAF         -0.5730    27.5380     4.4990 f          1 JOR      -0.202000
     11 CAI         -1.3130    25.3670     3.8580 ca         1 JOR      -0.135000
     12 CAN         -2.1470    24.2450     4.0730 ca         1 JOR      -0.072600
     13 CAK         -2.0850    23.0990     3.0980 c          1 JOR       0.717600
     14 OAE         -1.0010    22.5590     2.9250 o          1 JOR      -0.701000
     15 OAB         -3.0690    22.8640     2.4080 o          1 JOR      -0.701000
     16 H1          -1.7240    20.3590     6.5660 h1         1 JOR       0.111033
     17 H2          -2.2360    20.7880     4.8870 h1         1 JOR       0.111033
     18 H3          -1.2160    21.9350     5.8450 h1         1 JOR       0.111033
     19 H4          -4.7490    23.4210     5.8570 hn         1 JOR       0.488000
     20 H5          -3.7620    25.3680     6.8800 ha         1 JOR       0.101000
     21 H6          -2.3020    27.3350     6.4660 ha         1 JOR       0.112000
     22 H7          -0.6300    25.3830     3.0120 ha         1 JOR       0.138000
@<TRIPOS>BOND
     1     1     2 1   
     2     1    16 1   
     3     1    17 1   
     4     1    18 1   
     5     2     3 2   
     6     2     4 2   
     7     2     5 1   
     8     5     6 1   
     9     5    19 1   
    10     6     7 ar  
    11     6    12 ar  
    12     7     8 ar  
    13     7    20 1   
    14     8     9 ar  
    15     8    21 1   
    16     9    10 1   
    17     9    11 ar  
    18    11    12 ar  
    19    11    22 1   
    20    12    13 1   
    21    13    14 1   
    22    13    15 1   
@<TRIPOS>SUBSTRUCTURE
     1 JOR         1 TEMP              0 ****  ****    0 ROOT
