@<TRIPOS>MOLECULE
JOT
   29    30     1     0     0
SMALL
No Charge or Current Charge


@<TRIPOS>ATOM
      1 C4          -3.2090     0.2930    -0.9280 c          1 JOT       0.545000
      2 C5           0.2030    -1.2420    -0.5730 c          1 JOT       0.610100
      3 C6           1.4720    -1.0900    -1.4170 c3         1 JOT      -0.108100
      4 C11          3.4150     1.9460    -0.0950 ca         1 JOT      -0.110000
      5 C7           2.5070    -0.2420    -0.6830 ca         1 JOT      -0.077300
      6 C8           3.5020    -0.8550     0.1020 ca         1 JOT      -0.090500
      7 C9           4.4500    -0.0720     0.7840 ca         1 JOT      -0.110000
      8 C10          4.4070     1.3290     0.6860 ca         1 JOT      -0.103000
      9 C12          2.4670     1.1630    -0.7770 ca         1 JOT      -0.090500
     10 N1          -3.7630     1.0820     0.0240 ns         1 JOT      -0.484500
     11 N2          -0.8440    -0.4170    -0.9460 ns         1 JOT      -0.499900
     12 C3          -2.0950    -0.4580    -0.1530 c5         1 JOT       0.022700
     13 C1          -3.2080     1.1780     1.2570 c          1 JOT       0.572000
     14 C2          -1.8740     0.4330     1.1160 c5         1 JOT      -0.183400
     15 O1          -3.7890     1.5790     2.2510 o          1 JOT      -0.494000
     16 O2          -3.5660     0.2210    -2.0930 o          1 JOT      -0.483000
     17 O3           0.1300    -2.0260     0.3640 o          1 JOT      -0.573100
     18 H1           1.8830    -2.0870    -1.6130 hc         1 JOT       0.066200
     19 H2           1.2280    -0.6070    -2.3710 hc         1 JOT       0.066200
     20 H4           3.5420    -1.9390     0.1880 ha         1 JOT       0.111500
     21 H5           5.2160    -0.5510     1.3900 ha         1 JOT       0.113500
     22 H6           5.1400     1.9350     1.2140 ha         1 JOT       0.113000
     23 H7           1.7030     1.6510    -1.3780 ha         1 JOT       0.111500
     24 H8          -4.6270     1.5660    -0.1710 hn         1 JOT       0.344500
     25 H9          -0.6980     0.1890    -1.7470 hn         1 JOT       0.315500
     26 H10         -2.4600    -1.4670     0.0860 h1         1 JOT       0.120700
     27 H11         -1.6030    -0.0950     2.0360 hc         1 JOT       0.091200
     28 H12         -1.1150     1.1980     0.9140 hc         1 JOT       0.091200
     29 H3           3.3800     3.0300    -0.1710 ha         1 JOT       0.113500
@<TRIPOS>BOND
     1     1    10 1   
     2     1    12 1   
     3     1    16 2   
     4     2     3 1   
     5     2    11 1   
     6     2    17 2   
     7     3     5 1   
     8     3    18 1   
     9     3    19 1   
    10     4     8 ar  
    11     4     9 ar  
    12     4    29 1   
    13     5     6 ar  
    14     5     9 ar  
    15     6     7 ar  
    16     6    20 1   
    17     7     8 ar  
    18     7    21 1   
    19     8    22 1   
    20     9    23 1   
    21    10    13 1   
    22    10    24 1   
    23    11    12 1   
    24    11    25 1   
    25    12    14 1   
    26    12    26 1   
    27    13    14 1   
    28    13    15 2   
    29    14    27 1   
    30    14    28 1   
@<TRIPOS>SUBSTRUCTURE
     1 JOT         1 TEMP              0 ****  ****    0 ROOT
