@<TRIPOS>MOLECULE
JOT
   29    30     1     0     0
SMALL
bcc


@<TRIPOS>ATOM
      1 C4          -3.0150    -0.8680    -0.4210 c          1 JOT       0.687500
      2 C5           0.2970    -0.1330    -0.2010 c          1 JOT       0.677100
      3 C6           1.3810     0.2170    -1.2060 c3         1 JOT      -0.108100
      4 C11          4.6080     1.3000     0.4650 ca         1 JOT      -0.128000
      5 C7           2.7520     0.1750    -0.5990 ca         1 JOT      -0.077300
      6 C8           3.4420    -1.0280    -0.4860 ca         1 JOT      -0.108500
      7 C9           4.7020    -1.0700     0.0960 ca         1 JOT      -0.128000
      8 C10          5.2890     0.0940     0.5750 ca         1 JOT      -0.121000
      9 C12          3.3490     1.3370    -0.1190 ca         1 JOT      -0.108500
     10 N1          -4.2980    -0.4460    -0.1880 ns         1 JOT      -0.618500
     11 N2          -0.9090     0.4080    -0.4770 ns         1 JOT      -0.566900
     12 C3          -2.0890     0.1230     0.2780 c5         1 JOT       0.022700
     13 C1          -4.3890     0.7870     0.4200 c          1 JOT       0.714500
     14 C2          -2.9870     1.3230     0.5700 c5         1 JOT      -0.183400
     15 O1          -5.4210     1.3220     0.7380 o          1 JOT      -0.569500
     16 O2          -2.6930    -1.8480    -1.0400 o          1 JOT      -0.558500
     17 O3           0.5000    -0.8510     0.7620 o          1 JOT      -0.573100
     18 H1           1.3040    -0.5100    -2.0210 hc         1 JOT       0.066200
     19 H2           1.1830     1.1950    -1.6500 hc         1 JOT       0.066200
     20 H4           2.9960    -1.9410    -0.8610 ha         1 JOT       0.129500
     21 H5           5.2270    -2.0140     0.1760 ha         1 JOT       0.131500
     22 H6           6.2710     0.0620     1.0290 ha         1 JOT       0.131000
     23 H7           2.8260     2.2830    -0.2060 ha         1 JOT       0.129500
     24 H8          -5.1130    -0.9800    -0.4630 hn         1 JOT       0.344500
     25 H9          -1.0080     0.9690    -1.3090 hn         1 JOT       0.315500
     26 H10         -1.7870    -0.3510     1.2150 h1         1 JOT       0.120700
     27 H11         -2.8330     1.7560     1.5560 hc         1 JOT       0.091200
     28 H12         -2.8480     2.1180    -0.1680 hc         1 JOT       0.091200
     29 H3           5.0590     2.2140     0.8300 ha         1 JOT       0.131500
@<TRIPOS>BOND
     1     1    10 1   
     2     1    12 1   
     3     1    16 2   
     4     2     3 1   
     5     2    11 1   
     6     2    17 2   
     7     3     5 1   
     8     3    18 1   
     9     3    19 1   
    10     4     8 ar  
    11     4     9 ar  
    12     4    29 1   
    13     5     6 ar  
    14     5     9 ar  
    15     6     7 ar  
    16     6    20 1   
    17     7     8 ar  
    18     7    21 1   
    19     8    22 1   
    20     9    23 1   
    21    10    13 1   
    22    10    24 1   
    23    11    12 1   
    24    11    25 1   
    25    12    14 1   
    26    12    26 1   
    27    13    14 1   
    28    13    15 2   
    29    14    27 1   
    30    14    28 1   
@<TRIPOS>SUBSTRUCTURE
     1 JOT         1 TEMP              0 ****  ****    0 ROOT
