@<TRIPOS>MOLECULE
JOV
   29    29     1     0     0
SMALL
abcg2


@<TRIPOS>ATOM
      1 C10         -1.6670     1.9840     0.3040 ca         1 JOV      -0.058000
      2 C13         -2.8330    -0.4250    -0.3710 ca         1 JOV       0.109000
      3 C01          3.4580     0.8020     1.1030 c3         1 JOV      -0.098600
      4 C02          2.8300    -0.0290    -0.0160 c3         1 JOV       0.141400
      5 C03          3.3530     0.4060    -1.3840 c3         1 JOV      -0.098600
      6 C04          3.1190    -1.5220     0.2000 c3         1 JOV       0.149600
      7 O05          4.5050    -1.7320     0.2190 oh         1 JOV      -0.651000
      8 N06          1.3670     0.0530     0.0340 ns         1 JOV      -0.509900
      9 C07          0.6150     1.1390    -0.2070 c          1 JOV       0.617700
     10 O08          1.0540     2.2430    -0.4930 o          1 JOV      -0.594100
     11 C09         -0.8670     0.9210    -0.1050 ca         1 JOV      -0.144600
     12 C11         -3.0410     1.8270     0.3920 ca         1 JOV      -0.110000
     13 C12         -3.6370     0.6200     0.0530 ca         1 JOV      -0.085000
     14 C14         -1.4560    -0.2910    -0.4520 ca         1 JOV      -0.086000
     15 CL15        -3.5610    -1.9320    -0.8210 cl         1 JOV      -0.201000
     16 H101        -1.2160     2.9320     0.5640 ha         1 JOV       0.139000
     17 H011         3.0920     0.4780     2.0790 hc         1 JOV       0.050033
     18 H012         4.5420     0.7020     1.0970 hc         1 JOV       0.050033
     19 H013         3.2220     1.8590     0.9840 hc         1 JOV       0.050033
     20 H031         4.4230     0.2130    -1.4540 hc         1 JOV       0.050033
     21 H032         2.8550    -0.1450    -2.1830 hc         1 JOV       0.050033
     22 H033         3.1960     1.4690    -1.5510 hc         1 JOV       0.050033
     23 H041         2.6550    -1.8350     1.1480 h1         1 JOV       0.019200
     24 H042         2.6320    -2.0910    -0.6040 h1         1 JOV       0.019200
     25 H051         4.6630    -2.6760     0.3110 ho         1 JOV       0.447000
     26 H061         0.8950    -0.7370     0.4470 hn         1 JOV       0.308500
     27 H111        -3.6590     2.6500     0.7230 ha         1 JOV       0.123000
     28 H121        -4.7100     0.4990     0.1140 ha         1 JOV       0.131000
     29 H141        -0.8600    -1.1220    -0.8080 ha         1 JOV       0.128000
@<TRIPOS>BOND
     1     1    11 ar  
     2     1    12 ar  
     3     1    16 1   
     4     2    13 ar  
     5     2    14 ar  
     6     2    15 1   
     7     3     4 1   
     8     3    17 1   
     9     3    18 1   
    10     3    19 1   
    11     4     5 1   
    12     4     6 1   
    13     4     8 1   
    14     5    20 1   
    15     5    21 1   
    16     5    22 1   
    17     6     7 1   
    18     6    23 1   
    19     6    24 1   
    20     7    25 1   
    21     8     9 1   
    22     8    26 1   
    23     9    10 2   
    24     9    11 1   
    25    11    14 ar  
    26    12    13 ar  
    27    12    27 1   
    28    13    28 1   
    29    14    29 1   
@<TRIPOS>SUBSTRUCTURE
     1 JOV         1 TEMP              0 ****  ****    0 ROOT
