@<TRIPOS>MOLECULE
JOV
   29    29     1     0     0
SMALL
No Charge or Current Charge


@<TRIPOS>ATOM
      1 C10         -1.7550     2.0970    -0.0280 ca         1 JOV      -0.058000
      2 C13         -2.8810    -0.4710     0.0170 ca         1 JOV       0.109000
      3 C01          3.4400     0.6330     1.2270 c3         1 JOV      -0.098600
      4 C02          2.8560    -0.0590    -0.0360 c3         1 JOV       0.141400
      5 C03          3.4190     0.5970    -1.3270 c3         1 JOV      -0.098600
      6 C04          3.2120    -1.5860    -0.0170 c3         1 JOV       0.149600
      7 O05          4.6300    -1.8260    -0.0260 oh         1 JOV      -0.651000
      8 N06          1.3820     0.0360    -0.0250 ns         1 JOV      -0.509900
      9 C07          0.6050     1.1830    -0.0350 c          1 JOV       0.617700
     10 O08          1.0910     2.3050    -0.0550 o          1 JOV      -0.594100
     11 C09         -0.8970     0.9710    -0.0190 ca         1 JOV      -0.144600
     12 C11         -3.1520     1.9400    -0.0140 ca         1 JOV      -0.110000
     13 C12         -3.7160     0.6550     0.0080 ca         1 JOV      -0.085000
     14 C14         -1.4830    -0.3210     0.0030 ca         1 JOV      -0.086000
     15 Cl15        -3.5860    -2.0830     0.0450 cl         1 JOV      -0.201000
     16 H101        -1.3400     3.1030    -0.0460 ha         1 JOV       0.139000
     17 H011         3.0180     0.1940     2.1390 hc         1 JOV       0.050033
     18 H012         4.5290     0.5190     1.2700 hc         1 JOV       0.050033
     19 H013         3.2280     1.7070     1.2370 hc         1 JOV       0.050033
     20 H031         4.5080     0.4820    -1.3840 hc         1 JOV       0.050033
     21 H032         2.9820     0.1330    -2.2200 hc         1 JOV       0.050033
     22 H033         3.2060     1.6700    -1.3640 hc         1 JOV       0.050033
     23 H041         2.7660    -2.0430     0.8770 h1         1 JOV       0.019200
     24 H042         2.7520    -2.0670    -0.8910 h1         1 JOV       0.019200
     25 H051         4.7570    -2.8000    -0.0130 ho         1 JOV       0.447000
     26 H061         0.8680    -0.8330    -0.0090 hn         1 JOV       0.308500
     27 H111        -3.7970     2.8160    -0.0210 ha         1 JOV       0.123000
     28 H121        -4.7960     0.5310     0.0190 ha         1 JOV       0.131000
     29 H141        -0.8760    -1.2210     0.0110 ha         1 JOV       0.128000
@<TRIPOS>BOND
     1     1    11 ar  
     2     1    12 ar  
     3     1    16 1   
     4     2    13 ar  
     5     2    14 ar  
     6     2    15 1   
     7     3     4 1   
     8     3    17 1   
     9     3    18 1   
    10     3    19 1   
    11     4     5 1   
    12     4     6 1   
    13     4     8 1   
    14     5    20 1   
    15     5    21 1   
    16     5    22 1   
    17     6     7 1   
    18     6    23 1   
    19     6    24 1   
    20     7    25 1   
    21     8     9 1   
    22     8    26 1   
    23     9    10 2   
    24     9    11 1   
    25    11    14 ar  
    26    12    13 ar  
    27    12    27 1   
    28    13    28 1   
    29    14    29 1   
@<TRIPOS>SUBSTRUCTURE
     1 JOV         1 TEMP              0 ****  ****    0 ROOT
