@<TRIPOS>MOLECULE
JOW
   45    46     1     0     0
SMALL
abcg2


@<TRIPOS>ATOM
      1 C4           6.1760     0.7370     0.8330 c          1 JOW       0.540000
      2 C14         -5.1600    -0.4590    -0.1650 c          1 JOW       0.592100
      3 C5           3.7260    -1.0240    -0.6340 c          1 JOW       0.650100
      4 C6           1.8450    -2.4470    -0.5710 c3         1 JOW       0.235900
      5 C11         -1.8730    -1.7340    -0.6360 ca         1 JOW      -0.104500
      6 C7           0.4100    -2.3550    -0.1550 ca         1 JOW      -0.116300
      7 C8           0.0140    -2.7530     1.1150 ca         1 JOW      -0.088000
      8 C9          -1.3150    -2.6430     1.5070 ca         1 JOW      -0.104500
      9 C10         -2.2720    -2.1340     0.6390 ca         1 JOW      -0.082300
     10 C12         -0.5490    -1.8430    -1.0260 ca         1 JOW      -0.088000
     11 C13         -3.7180    -2.0420     1.0630 c3         1 JOW       0.139300
     12 N1           7.0020     1.8290     0.7920 ns         1 JOW      -0.485500
     13 N2           4.1270     0.2530    -0.4440 ns         1 JOW      -0.487900
     14 C3           5.4980     0.6410    -0.5310 c5         1 JOW       0.040700
     15 N3          -4.2990    -0.7420     0.8320 ns         1 JOW      -0.520900
     16 C1           6.8640     2.6040    -0.3380 c          1 JOW       0.573000
     17 C2           5.7510     2.0080    -1.1630 c5         1 JOW      -0.183400
     18 O1           7.5140     3.5890    -0.5780 o          1 JOW      -0.498000
     19 O2           6.0300    -0.0100     1.7660 o          1 JOW      -0.481000
     20 O3           2.4270    -1.1520    -0.3650 os         1 JOW      -0.448100
     21 O4           4.4380    -1.9290    -1.0160 o          1 JOW      -0.540000
     22 C15         -5.6000     0.9850    -0.2460 c3         1 JOW      -0.129400
     23 O5          -5.5490    -1.3030    -0.9630 o          1 JOW      -0.627100
     24 C16         -7.1050     1.1270    -0.4200 c3         1 JOW      -0.204400
     25 C17         -7.5880     2.5660    -0.6780 c          1 JOW       0.718000
     26 O6          -6.7390     3.4100    -1.0240 o          1 JOW      -0.739000
     27 O7          -8.8140     2.7610    -0.5420 o          1 JOW      -0.739000
     28 H1           2.3730    -3.1950     0.0230 h1         1 JOW       0.054200
     29 H2           1.9300    -2.7260    -1.6240 h1         1 JOW       0.054200
     30 H3          -2.6020    -1.3430    -1.3350 ha         1 JOW       0.124500
     31 H4           0.7450    -3.1530     1.8080 ha         1 JOW       0.111000
     32 H5          -1.6040    -2.9590     2.5020 ha         1 JOW       0.124500
     33 H6          -0.2590    -1.5310    -2.0220 ha         1 JOW       0.111000
     34 H7          -4.3110    -2.7800     0.5220 h1         1 JOW       0.059200
     35 H8          -3.8050    -2.2850     2.1230 h1         1 JOW       0.059200
     36 H9           7.6310     2.0740     1.5480 hn         1 JOW       0.342500
     37 H10          3.4680     0.9140    -0.0590 hn         1 JOW       0.335500
     38 H11          6.0410    -0.1250    -1.0900 h1         1 JOW       0.116700
     39 H12         -4.0020     0.0070     1.4350 hn         1 JOW       0.312500
     40 H13          6.0210     1.9610    -2.2160 hc         1 JOW       0.094700
     41 H14          4.8780     2.6600    -1.0740 hc         1 JOW       0.094700
     42 H15         -5.2640     1.5440     0.6290 hc         1 JOW       0.059700
     43 H16         -5.0900     1.4290    -1.1060 hc         1 JOW       0.059700
     44 H17         -7.4360     0.5080    -1.2600 hc         1 JOW       0.032700
     45 H18         -7.6250     0.7310     0.4570 hc         1 JOW       0.032700
@<TRIPOS>BOND
     1     1    12 1   
     2     1    14 1   
     3     1    19 2   
     4     2    15 1   
     5     2    22 1   
     6     2    23 2   
     7     3    13 1   
     8     3    20 1   
     9     3    21 2   
    10     4     6 1   
    11     4    20 1   
    12     4    28 1   
    13     4    29 1   
    14     5     9 ar  
    15     5    10 ar  
    16     5    30 1   
    17     6     7 ar  
    18     6    10 ar  
    19     7     8 ar  
    20     7    31 1   
    21     8     9 ar  
    22     8    32 1   
    23     9    11 1   
    24    10    33 1   
    25    11    15 1   
    26    11    34 1   
    27    11    35 1   
    28    12    16 1   
    29    12    36 1   
    30    13    14 1   
    31    13    37 1   
    32    14    17 1   
    33    14    38 1   
    34    15    39 1   
    35    16    17 1   
    36    16    18 2   
    37    17    40 1   
    38    17    41 1   
    39    22    24 1   
    40    22    42 1   
    41    22    43 1   
    42    24    25 1   
    43    24    44 1   
    44    24    45 1   
    45    25    26 1   
    46    25    27 1   
@<TRIPOS>SUBSTRUCTURE
     1 JOW         1 TEMP              0 ****  ****    0 ROOT
