@<TRIPOS>MOLECULE
JOW
   45    46     1     0     0
SMALL
No Charge or Current Charge


@<TRIPOS>ATOM
      1 C4           5.5350     2.1150     0.9770 c          1 JOW       0.540000
      2 C14         -4.8630    -0.1510    -0.5900 c          1 JOW       0.592100
      3 C5           3.7750    -1.0260    -0.0430 c          1 JOW       0.650100
      4 C6           1.9310    -2.5220    -0.3190 c3         1 JOW       0.235900
      5 C11         -1.7670    -2.1560    -1.2770 ca         1 JOW      -0.104500
      6 C7           0.4110    -2.4920    -0.2270 ca         1 JOW      -0.116300
      7 C8          -0.2330    -2.7690     0.9940 ca         1 JOW      -0.088000
      8 C9          -1.6360    -2.7420     1.0780 ca         1 JOW      -0.104500
      9 C10         -2.4120    -2.4380    -0.0570 ca         1 JOW      -0.082300
     10 C12         -0.3640    -2.1830    -1.3620 ca         1 JOW      -0.088000
     11 C13         -3.9300    -2.4060     0.0340 c3         1 JOW       0.139300
     12 N1           6.3430     2.8110     0.1410 ns         1 JOW      -0.485500
     13 N2           4.0460     0.2790     0.2730 ns         1 JOW      -0.487900
     14 C3           5.4590     0.7190     0.3060 c5         1 JOW       0.040700
     15 N3          -4.4210    -1.0620     0.3430 ns         1 JOW      -0.520900
     16 C1           6.7380     2.2820    -1.0430 c          1 JOW       0.573000
     17 C2           5.9010     1.0030    -1.1690 c5         1 JOW      -0.183400
     18 O1           7.6970     2.6670    -1.6890 o          1 JOW      -0.498000
     19 O2           5.0380     2.5390     2.0090 o          1 JOW      -0.481000
     20 O3           2.4280    -1.2100    -0.0140 os         1 JOW      -0.448100
     21 O4           4.6060    -1.8820    -0.3060 o          1 JOW      -0.540000
     22 C15         -5.2870     1.2090    -0.0190 c3         1 JOW      -0.129400
     23 O5          -4.8870    -0.4000    -1.7880 o          1 JOW      -0.627100
     24 C16         -6.8320     1.3910    -0.0190 c3         1 JOW      -0.204400
     25 C17         -7.2130     2.7610     0.5670 c          1 JOW       0.718000
     26 O6          -7.2780     3.7140    -0.1940 o          1 JOW      -0.739000
     27 O7          -7.3760     2.8440     1.7740 o          1 JOW      -0.739000
     28 H1           2.3270    -3.2630     0.3880 h1         1 JOW       0.054200
     29 H2           2.2320    -2.8260    -1.3310 h1         1 JOW       0.054200
     30 H3          -2.3550    -1.9140    -2.1600 ha         1 JOW       0.124500
     31 H4           0.3530    -3.0030     1.8790 ha         1 JOW       0.111000
     32 H5          -2.1210    -2.9560     2.0290 ha         1 JOW       0.124500
     33 H6           0.1200    -1.9610    -2.3100 ha         1 JOW       0.111000
     34 H7          -4.3680    -2.7550    -0.9110 h1         1 JOW       0.059200
     35 H8          -4.2670    -3.0910     0.8230 h1         1 JOW       0.059200
     36 H9           6.6960     3.7130     0.4250 hn         1 JOW       0.342500
     37 H10          3.2490     0.8670     0.4880 hn         1 JOW       0.335500
     38 H11          6.1410     0.0400     0.8380 h1         1 JOW       0.116700
     39 H12         -4.4270    -0.7620     1.3110 hn         1 JOW       0.312500
     40 H13          6.4540     0.2020    -1.6710 hc         1 JOW       0.094700
     41 H14          5.0300     1.2660    -1.7810 hc         1 JOW       0.094700
     42 H15         -4.9290     1.3070     1.0130 hc         1 JOW       0.059700
     43 H16         -4.8450     2.0000    -0.6380 hc         1 JOW       0.059700
     44 H17         -7.1440     1.3260    -1.0680 hc         1 JOW       0.032700
     45 H18         -7.2280     0.5840     0.6100 hc         1 JOW       0.032700
@<TRIPOS>BOND
     1     1    12 1   
     2     1    14 1   
     3     1    19 2   
     4     2    15 1   
     5     2    22 1   
     6     2    23 2   
     7     3    13 1   
     8     3    20 1   
     9     3    21 2   
    10     4     6 1   
    11     4    20 1   
    12     4    28 1   
    13     4    29 1   
    14     5     9 ar  
    15     5    10 ar  
    16     5    30 1   
    17     6     7 ar  
    18     6    10 ar  
    19     7     8 ar  
    20     7    31 1   
    21     8     9 ar  
    22     8    32 1   
    23     9    11 1   
    24    10    33 1   
    25    11    15 1   
    26    11    34 1   
    27    11    35 1   
    28    12    16 1   
    29    12    36 1   
    30    13    14 1   
    31    13    37 1   
    32    14    17 1   
    33    14    38 1   
    34    15    39 1   
    35    16    17 1   
    36    16    18 2   
    37    17    40 1   
    38    17    41 1   
    39    22    24 1   
    40    22    42 1   
    41    22    43 1   
    42    24    25 1   
    43    24    44 1   
    44    24    45 1   
    45    25    26 1   
    46    25    27 1   
@<TRIPOS>SUBSTRUCTURE
     1 JOW         1 TEMP              0 ****  ****    0 ROOT
