@<TRIPOS>MOLECULE
JOX
   12    12     1     0     0
SMALL
abcg2


@<TRIPOS>ATOM
      1 C2         -18.8780   -61.5100    24.8010 c          1 JOX       0.560500
      2 C3         -18.5270   -61.7990    26.2190 cc         1 JOX       0.032800
      3 C4         -18.1580   -63.0110    26.6300 cd         1 JOX      -0.240200
      4 C5         -18.0760   -64.1340    25.6760 c          1 JOX       0.556500
      5 C1         -18.7820   -62.6620    23.8630 cc         1 JOX       0.032800
      6 C          -18.4130   -63.8780    24.2630 cd         1 JOX      -0.240200
      7 O          -19.2170   -60.4170    24.4370 o          1 JOX      -0.433100
      8 O1         -17.7390   -65.2370    26.0440 o          1 JOX      -0.472100
      9 CL         -18.6370   -60.4660    27.2800 cl         1 JOX      -0.123500
     10 CL1        -19.1810   -62.3120    22.2410 cl         1 JOX      -0.123500
     11 H1         -17.9070   -63.2150    27.6630 ha         1 JOX       0.225000
     12 H2         -18.3480   -64.7130    23.5770 ha         1 JOX       0.225000
@<TRIPOS>BOND
     1     1     2 1   
     2     1     5 1   
     3     1     7 2   
     4     2     3 2   
     5     2     9 1   
     6     3     4 1   
     7     3    11 1   
     8     4     6 1   
     9     4     8 2   
    10     5     6 2   
    11     5    10 1   
    12     6    12 1   
@<TRIPOS>SUBSTRUCTURE
     1 JOX         1 TEMP              0 ****  ****    0 ROOT
