@<TRIPOS>MOLECULE
JOX
   12    12     1     0     0
SMALL
No Charge or Current Charge


@<TRIPOS>ATOM
      1 C2         -18.8900   -61.4640    24.7860 c          1 JOX       0.560500
      2 C3         -18.5400   -61.7680    26.2030 cc         1 JOX       0.032800
      3 C4         -18.1560   -63.0320    26.6120 cd         1 JOX      -0.240200
      4 C5         -18.0620   -64.1750    25.6900 c          1 JOX       0.556500
      5 C1         -18.7930   -62.6280    23.8580 cc         1 JOX       0.032800
      6 C          -18.4070   -63.8830    24.2890 cd         1 JOX      -0.240200
      7 O          -19.2320   -60.3450    24.4130 o          1 JOX      -0.433100
      8 O1         -17.7220   -65.2880    26.0610 o          1 JOX      -0.472100
      9 Cl         -18.6320   -60.4510    27.3430 cl         1 JOX      -0.123500
     10 Cl1        -19.1890   -62.3420    22.1830 cl         1 JOX      -0.123500
     11 H1         -17.9020   -63.2510    27.6410 ha         1 JOX       0.225000
     12 H2         -18.3360   -64.7270    23.6150 ha         1 JOX       0.225000
@<TRIPOS>BOND
     1     1     2 1   
     2     1     5 1   
     3     1     7 2   
     4     2     3 2   
     5     2     9 1   
     6     3     4 1   
     7     3    11 1   
     8     4     6 1   
     9     4     8 2   
    10     5     6 2   
    11     5    10 1   
    12     6    12 1   
@<TRIPOS>SUBSTRUCTURE
     1 JOX         1 TEMP              0 ****  ****    0 ROOT
