@<TRIPOS>MOLECULE
JOY
   23    24     1     0     0
SMALL
bcc


@<TRIPOS>ATOM
      1 C10          3.7910     0.3000     1.2440 cc         1 JOY      -0.308300
      2 N12          2.5140     1.0180    -0.4670 nd         1 JOY      -0.522800
      3 C13         -0.8170     0.1410    -1.4910 ca         1 JOY      -0.108000
      4 N01         -5.0000     0.6260     0.8290 n1         1 JOY      -0.357800
      5 C03         -2.6030     0.0080     0.1060 ca         1 JOY      -0.007000
      6 C04         -1.8140    -0.7970     0.9300 ca         1 JOY      -0.092000
      7 C05         -0.5330    -1.1260     0.5310 ca         1 JOY      -0.108000
      8 C06         -0.0230    -0.6610    -0.6790 ca         1 JOY      -0.090300
      9 C07          1.3850    -1.0080    -1.0870 c3         1 JOY       0.104600
     10 N08          2.3540    -0.2890    -0.2910 na         1 JOY       0.104400
     11 C09          3.0930    -0.7670     0.7290 cd         1 JOY      -0.142300
     12 C11          3.3870     1.3880     0.4530 cc         1 JOY       0.305200
     13 C14         -2.1050     0.4770    -1.1080 ca         1 JOY      -0.092000
     14 H101         4.4920     0.2940     2.0610 ha         1 JOY       0.164000
     15 H131        -0.4310     0.5060    -2.4330 ha         1 JOY       0.140000
     16 H041        -2.2060    -1.1630     1.8690 ha         1 JOY       0.146500
     17 H051         0.0750    -1.7560     1.1690 ha         1 JOY       0.140000
     18 H072         1.5720    -2.0730    -0.9550 h1         1 JOY       0.070200
     19 H071         1.5520    -0.7710    -2.1380 h1         1 JOY       0.070200
     20 H091         3.0760    -1.8090     1.0040 h4         1 JOY       0.168000
     21 H111         3.7040     2.4180     0.5180 h4         1 JOY       0.037100
     22 H141        -2.7180     1.1000    -1.7440 ha         1 JOY       0.146500
     23 C02         -3.9290     0.3480     0.5070 cg         1 JOY       0.231800
@<TRIPOS>BOND
     1     1    11 2   
     2     1    12 1   
     3     1    14 1   
     4     2    10 1   
     5     2    12 2   
     6     3     8 ar  
     7     3    13 ar  
     8     3    15 1   
     9     4    23 3   
    10     5     6 ar  
    11     5    13 ar  
    12     5    23 1   
    13     6     7 ar  
    14     6    16 1   
    15     7     8 ar  
    16     7    17 1   
    17     8     9 1   
    18     9    10 1   
    19     9    18 1   
    20     9    19 1   
    21    10    11 1   
    22    11    20 1   
    23    12    21 1   
    24    13    22 1   
@<TRIPOS>SUBSTRUCTURE
     1 JOY         1 TEMP              0 ****  ****    0 ROOT
