@<TRIPOS>MOLECULE
JOY
   23    24     1     0     0
SMALL
No Charge or Current Charge


@<TRIPOS>ATOM
      1 C10          3.9380    -0.0050     1.2960 cc         1 JOY      -0.225000
      2 N12          2.7530     1.1750    -0.2440 nd         1 JOY      -0.522800
      3 C13         -1.0350    -0.0790    -1.6600 ca         1 JOY      -0.090000
      4 N01         -5.2130     0.3100     0.8210 n1         1 JOY      -0.447000
      5 C03         -2.7410    -0.0610     0.0830 ca         1 JOY      -0.007000
      6 C04         -1.7720    -0.4580     1.0240 ca         1 JOY      -0.074000
      7 C05         -0.4400    -0.6630     0.6240 ca         1 JOY      -0.090000
      8 C06         -0.0600    -0.4700    -0.7210 ca         1 JOY      -0.090300
      9 C07          1.3840    -0.6960    -1.1740 c3         1 JOY       0.133900
     10 N08          2.4070    -0.1740    -0.2470 na         1 JOY       0.125800
     11 C09          3.1300    -0.9180     0.6940 cd         1 JOY      -0.175000
     12 C11          3.6730     1.2330     0.6970 cc         1 JOY       0.239900
     13 C14         -2.3680     0.1260    -1.2610 ca         1 JOY      -0.074000
     14 H101         4.6590    -0.1770     2.0900 ha         1 JOY       0.146000
     15 H131        -0.7630     0.0680    -2.7030 ha         1 JOY       0.122000
     16 H041        -2.0490    -0.6100     2.0660 ha         1 JOY       0.128500
     17 H051         0.2930    -0.9750     1.3640 ha         1 JOY       0.122000
     18 H072         1.5510    -1.7730    -1.2990 h1         1 JOY       0.070200
     19 H071         1.5420    -0.2270    -2.1520 h1         1 JOY       0.070200
     20 H091         3.0060    -1.9850     0.8430 h4         1 JOY       0.150000
     21 H111         4.1320     2.1860     0.9250 h4         1 JOY       0.037100
     22 H141        -3.1080     0.4300    -1.9990 ha         1 JOY       0.128500
     23 C02         -4.1040     0.1480     0.4920 cg         1 JOY       0.321000
@<TRIPOS>BOND
     1     1    11 2   
     2     1    12 1   
     3     1    14 1   
     4     2    10 1   
     5     2    12 2   
     6     3     8 ar  
     7     3    13 ar  
     8     3    15 1   
     9     4    23 3   
    10     5     6 ar  
    11     5    13 ar  
    12     5    23 1   
    13     6     7 ar  
    14     6    16 1   
    15     7     8 ar  
    16     7    17 1   
    17     8     9 1   
    18     9    10 1   
    19     9    18 1   
    20     9    19 1   
    21    10    11 1   
    22    11    20 1   
    23    12    21 1   
    24    13    22 1   
@<TRIPOS>SUBSTRUCTURE
     1 JOY         1 TEMP              0 ****  ****    0 ROOT
