@<TRIPOS>MOLECULE
JOZ
   20    21     1     0     0
SMALL
bcc


@<TRIPOS>ATOM
      1 C4           1.1380    -1.3820    -0.1130 ca         1 JOZ      -0.069000
      2 C5          -0.7020     1.8950     0.3080 c6         1 JOZ      -0.051100
      3 C6          -1.9300     1.4200    -0.4430 c6         1 JOZ       0.113000
      4 C7           0.4210     0.9140     0.1380 ca         1 JOZ      -0.049300
      5 C8           0.1170    -0.4450     0.0140 ca         1 JOZ      -0.151600
      6 C1           2.7680     0.3750    -0.0040 ca         1 JOZ      -0.103000
      7 C2           2.4620    -0.9750    -0.1280 ca         1 JOZ      -0.143000
      8 C3           1.7530     1.3110     0.1310 ca         1 JOZ      -0.138000
      9 C9          -1.2980    -0.9130     0.0430 c          1 JOZ       0.718100
     10 N10         -2.2290     0.0470    -0.0840 ns         1 JOZ      -0.571900
     11 O11         -1.5830    -2.0970     0.1870 o          1 JOZ      -0.641500
     12 H4           0.8940    -2.4320    -0.2050 ha         1 JOZ       0.155000
     13 H5          -0.4100     2.8830    -0.0500 hc         1 JOZ       0.062700
     14 H5A         -0.9400     1.9980     1.3710 hc         1 JOZ       0.062700
     15 H6          -2.7930     2.0320    -0.1870 h1         1 JOZ       0.044200
     16 H6A         -1.7720     1.5130    -1.5220 h1         1 JOZ       0.044200
     17 H1           3.8010     0.6990    -0.0140 ha         1 JOZ       0.132000
     18 H2           3.2520    -1.7050    -0.2340 ha         1 JOZ       0.136000
     19 H3           1.9960     2.3630     0.2280 ha         1 JOZ       0.131000
     20 HN10        -3.1900    -0.2570    -0.1330 hn         1 JOZ       0.319500
@<TRIPOS>BOND
     1     1     5 ar  
     2     1     7 ar  
     3     1    12 1   
     4     2     3 1   
     5     2     4 1   
     6     2    13 1   
     7     2    14 1   
     8     3    10 1   
     9     3    15 1   
    10     3    16 1   
    11     4     5 ar  
    12     4     8 ar  
    13     5     9 1   
    14     6     7 ar  
    15     6     8 ar  
    16     6    17 1   
    17     7    18 1   
    18     8    19 1   
    19     9    10 1   
    20     9    11 2   
    21    10    20 1   
@<TRIPOS>SUBSTRUCTURE
     1 JOZ         1 TEMP              0 ****  ****    0 ROOT
