@<TRIPOS>MOLECULE
JOZ
   20    21     1     0     0
SMALL
No Charge or Current Charge


@<TRIPOS>ATOM
      1 C4           1.1750    -1.4210    -0.0920 ca         1 JOZ      -0.051000
      2 C5          -0.6880     1.9190     0.2550 c6         1 JOZ      -0.051100
      3 C6          -2.0150     1.4550    -0.3800 c6         1 JOZ       0.113000
      4 C7           0.4340     0.8940     0.0990 ca         1 JOZ      -0.049300
      5 C8           0.1240    -0.4810    -0.0080 ca         1 JOZ      -0.151600
      6 C1           2.8160     0.3730     0.0220 ca         1 JOZ      -0.085000
      7 C2           2.5140    -0.9940    -0.0810 ca         1 JOZ      -0.125000
      8 C3           1.7780     1.3140     0.1170 ca         1 JOZ      -0.120000
      9 C9          -1.3130    -0.9430    -0.0230 c          1 JOZ       0.575600
     10 N10         -2.2750     0.0290    -0.1560 ns         1 JOZ      -0.504900
     11 O11         -1.6350    -2.1160     0.0820 o          1 JOZ      -0.566000
     12 H4           0.9550    -2.4840    -0.1710 ha         1 JOZ       0.137000
     13 H5          -0.3940     2.8860    -0.1760 hc         1 JOZ       0.062700
     14 H5A         -0.8500     2.0960     1.3260 hc         1 JOZ       0.062700
     15 H6          -2.8520     2.0470     0.0160 h1         1 JOZ       0.044200
     16 H6A         -1.9710     1.6200    -1.4660 h1         1 JOZ       0.044200
     17 H1           3.8530     0.7030     0.0340 ha         1 JOZ       0.114000
     18 H2           3.3170    -1.7250    -0.1500 ha         1 JOZ       0.118000
     19 H3           2.0180     2.3700     0.2100 ha         1 JOZ       0.113000
     20 HN10        -3.2350    -0.2950    -0.1550 hn         1 JOZ       0.319500
@<TRIPOS>BOND
     1     1     5 ar  
     2     1     7 ar  
     3     1    12 1   
     4     2     3 1   
     5     2     4 1   
     6     2    13 1   
     7     2    14 1   
     8     3    10 1   
     9     3    15 1   
    10     3    16 1   
    11     4     5 ar  
    12     4     8 ar  
    13     5     9 1   
    14     6     7 ar  
    15     6     8 ar  
    16     6    17 1   
    17     7    18 1   
    18     8    19 1   
    19     9    10 1   
    20     9    11 2   
    21    10    20 1   
@<TRIPOS>SUBSTRUCTURE
     1 JOZ         1 TEMP              0 ****  ****    0 ROOT
