@<TRIPOS>MOLECULE
JP0
   53    56     1     0     0
SMALL
No Charge or Current Charge


@<TRIPOS>ATOM
      1 C1          28.6340    52.3000    -8.3940 c          1 JP0       0.575600
      2 N2          27.9050    51.3890    -9.0700 ns         1 JP0      -0.418400
      3 C3          28.0250    51.1170   -10.4090 cc         1 JP0       0.492900
      4 N4          28.8960    51.7160   -11.2260 nd         1 JP0      -0.637100
      5 C5          26.0590    47.6350    -8.7440 c          1 JP0       0.618900
      6 C6          29.6290    53.0090    -9.2350 ca         1 JP0      -0.200600
      7 N7          25.5830    48.3180    -9.8950 n          1 JP0      -0.277200
      8 C8          29.7090    52.6820   -10.6040 ca         1 JP0       0.187400
      9 N9          25.8560    49.7450   -10.0800 nh         1 JP0      -0.591400
     10 C10         27.0670    50.0480   -10.9140 c3         1 JP0       0.162500
     11 O11         28.4720    52.5040    -7.2010 o          1 JP0      -0.536000
     12 O12         25.8280    46.4500    -8.5190 o          1 JP0      -0.587100
     13 C13         24.7380    47.6310   -10.9090 c3         1 JP0       0.136300
     14 C14         24.9250    48.1270   -12.3410 ca         1 JP0      -0.160300
     15 C15         24.7910    50.6620    -9.8270 ca         1 JP0       0.268000
     16 C16         25.3020    49.0830   -14.9710 ca         1 JP0       0.148100
     17 C17         30.4790    53.9920    -8.6840 ca         1 JP0      -0.039000
     18 C18         25.9580    47.6050   -13.1420 ca         1 JP0      -0.059000
     19 C19         24.0810    49.1270   -12.8620 ca         1 JP0      -0.059000
     20 C20         24.2720    49.6000   -14.1700 ca         1 JP0      -0.172000
     21 C21         26.1490    48.0790   -14.4520 ca         1 JP0      -0.172000
     22 C22         30.6500    53.3520   -11.4070 ca         1 JP0      -0.106000
     23 O23         25.4430    49.5890   -16.2470 os         1 JP0      -0.346100
     24 C24         23.7530    50.3350    -8.9270 ca         1 JP0      -0.147000
     25 C25         24.7510    51.9220   -10.4640 ca         1 JP0      -0.147000
     26 C26         26.4690    49.1310   -17.1460 c3         1 JP0       0.147900
     27 C27         31.4120    54.6510    -9.4990 ca         1 JP0      -0.133000
     28 C28         31.4990    54.3310   -10.8630 ca         1 JP0      -0.074000
     29 C29         22.7040    51.2350    -8.6750 ca         1 JP0      -0.082500
     30 C30         23.7030    52.8250   -10.2140 ca         1 JP0      -0.082500
     31 C31         22.6780    52.4810    -9.3190 ca         1 JP0      -0.130000
     32 H1          27.1990    50.8920    -8.5460 hn         1 JP0       0.343500
     33 H2          26.6540    48.2870    -8.0770 h5         1 JP0       0.028200
     34 H3          26.7440    50.3330   -11.9230 h1         1 JP0       0.086200
     35 H4          27.6570    49.1310   -11.0410 h1         1 JP0       0.086200
     36 H5          24.9500    46.5550   -10.8870 h1         1 JP0       0.072200
     37 H6          23.6870    47.7550   -10.6180 h1         1 JP0       0.072200
     38 H7          30.4170    54.2460    -7.6270 ha         1 JP0       0.136000
     39 H8          26.6190    46.8370   -12.7460 ha         1 JP0       0.119500
     40 H9          23.2850    49.5440   -12.2480 ha         1 JP0       0.119500
     41 H10         23.6200    50.3750   -14.5650 ha         1 JP0       0.126500
     42 H11         26.9560    47.6580   -15.0440 ha         1 JP0       0.126500
     43 H12         30.7220    53.1100   -12.4640 ha         1 JP0       0.132000
     44 H13         23.7550    49.3800    -8.4110 ha         1 JP0       0.124500
     45 H14         25.5240    52.2110   -11.1680 ha         1 JP0       0.124500
     46 H15         26.4020    49.6630   -18.1030 h1         1 JP0       0.044367
     47 H16         27.4660    49.3130   -16.7250 h1         1 JP0       0.044367
     48 H17         26.3620    48.0570   -17.3460 h1         1 JP0       0.044367
     49 H18         32.0680    55.4080    -9.0740 ha         1 JP0       0.121000
     50 H19         32.2210    54.8400   -11.4980 ha         1 JP0       0.118000
     51 H20         21.9120    50.9670    -7.9780 ha         1 JP0       0.117000
     52 H21         23.6850    53.7900   -10.7160 ha         1 JP0       0.117000
     53 H22         21.8670    53.1800    -9.1250 ha         1 JP0       0.119000
@<TRIPOS>BOND
     1     1     2 1   
     2     1     6 1   
     3     1    11 2   
     4     2     3 1   
     5     2    32 1   
     6     3     4 2   
     7     3    10 1   
     8     4     8 1   
     9     5     7 1   
    10     5    12 2   
    11     5    33 1   
    12     6     8 ar  
    13     6    17 ar  
    14     7     9 1   
    15     7    13 1   
    16     8    22 ar  
    17     9    10 1   
    18     9    15 1   
    19    10    34 1   
    20    10    35 1   
    21    13    14 1   
    22    13    36 1   
    23    13    37 1   
    24    14    18 ar  
    25    14    19 ar  
    26    15    24 ar  
    27    15    25 ar  
    28    16    20 ar  
    29    16    21 ar  
    30    16    23 1   
    31    17    27 ar  
    32    17    38 1   
    33    18    21 ar  
    34    18    39 1   
    35    19    20 ar  
    36    19    40 1   
    37    20    41 1   
    38    21    42 1   
    39    22    28 ar  
    40    22    43 1   
    41    23    26 1   
    42    24    29 ar  
    43    24    44 1   
    44    25    30 ar  
    45    25    45 1   
    46    26    46 1   
    47    26    47 1   
    48    26    48 1   
    49    27    28 ar  
    50    27    49 1   
    51    28    50 1   
    52    29    31 ar  
    53    29    51 1   
    54    30    31 ar  
    55    30    52 1   
    56    31    53 1   
@<TRIPOS>SUBSTRUCTURE
     1 JP0         1 TEMP              0 ****  ****    0 ROOT
