@<TRIPOS>MOLECULE
JP0
   53    56     1     0     0
SMALL
abcg2


@<TRIPOS>ATOM
      1 C1          28.8490    52.0410    -8.3700 c          1 JP0       0.575600
      2 N2          27.9940    51.1850    -9.0450 ns         1 JP0      -0.418400
      3 C3          27.8630    51.1390   -10.4000 cc         1 JP0       0.492900
      4 N4          28.5320    51.8890   -11.2080 nd         1 JP0      -0.637100
      5 C5          26.0740    47.6490    -9.0230 c          1 JP0       0.618900
      6 C6          29.6320    52.8910    -9.2610 ca         1 JP0      -0.200600
      7 N7          25.5080    48.4060    -9.9930 n          1 JP0      -0.277200
      8 C8          29.4410    52.7750   -10.6550 ca         1 JP0       0.187400
      9 N9          25.8470    49.7550   -10.0400 nh         1 JP0      -0.591400
     10 C10         26.9100    50.1140   -10.9690 c3         1 JP0       0.162500
     11 O11         28.8980    52.0380    -7.1450 o          1 JP0      -0.536000
     12 O12         25.8800    46.4540    -8.8620 o          1 JP0      -0.587100
     13 C13         24.5240    47.8670   -10.9490 c3         1 JP0       0.136300
     14 C14         24.8390    48.2460   -12.3690 ca         1 JP0      -0.160300
     15 C15         24.8090    50.6730    -9.7690 ca         1 JP0       0.268000
     16 C16         25.5070    49.0450   -14.9730 ca         1 JP0       0.148100
     17 C17         30.5560    53.8090    -8.7490 ca         1 JP0      -0.039000
     18 C18         25.8520    47.6060   -13.0740 ca         1 JP0      -0.059000
     19 C19         24.1550    49.2910   -12.9920 ca         1 JP0      -0.059000
     20 C20         24.4800    49.6910   -14.2780 ca         1 JP0      -0.172000
     21 C21         26.1950    47.9920   -14.3650 ca         1 JP0      -0.172000
     22 C22         30.1950    53.5930   -11.5110 ca         1 JP0      -0.106000
     23 O23         25.7600    49.5030   -16.2280 os         1 JP0      -0.346100
     24 C24         23.7720    50.3180    -8.8980 ca         1 JP0      -0.147000
     25 C25         24.8200    51.9560   -10.3240 ca         1 JP0      -0.147000
     26 C26         26.8030    48.8780   -16.9760 c3         1 JP0       0.147900
     27 C27         31.2890    54.6050    -9.6060 ca         1 JP0      -0.133000
     28 C28         31.1050    54.4920   -10.9920 ca         1 JP0      -0.074000
     29 C29         22.7700    51.2290    -8.5970 ca         1 JP0      -0.082500
     30 C30         23.8140    52.8620   -10.0070 ca         1 JP0      -0.082500
     31 C31         22.7820    52.5080    -9.1470 ca         1 JP0      -0.130000
     32 H1          27.4100    50.5750    -8.4850 hn         1 JP0       0.343500
     33 H2          26.7520    48.2380    -8.3880 h5         1 JP0       0.028200
     34 H3          26.5450    50.4880   -11.9270 h1         1 JP0       0.086200
     35 H4          27.4780    49.2060   -11.1660 h1         1 JP0       0.086200
     36 H5          24.5410    46.7890   -10.8060 h1         1 JP0       0.072200
     37 H6          23.5320    48.2300   -10.6750 h1         1 JP0       0.072200
     38 H7          30.6830    53.8800    -7.6770 ha         1 JP0       0.136000
     39 H8          26.3990    46.7950   -12.6060 ha         1 JP0       0.119500
     40 H9          23.3670    49.8070   -12.4580 ha         1 JP0       0.119500
     41 H10         23.9510    50.5040   -14.7590 ha         1 JP0       0.126500
     42 H11         26.9870    47.4730   -14.8830 ha         1 JP0       0.126500
     43 H12         30.0450    53.5010   -12.5790 ha         1 JP0       0.132000
     44 H13         23.7520    49.3320    -8.4560 ha         1 JP0       0.124500
     45 H14         25.5990    52.2600   -11.0070 ha         1 JP0       0.124500
     46 H15         26.8320    49.3930   -17.9330 h1         1 JP0       0.044367
     47 H16         27.7660    48.9850   -16.4710 h1         1 JP0       0.044367
     48 H17         26.5910    47.8180   -17.1360 h1         1 JP0       0.044367
     49 H18         32.0050    55.3140    -9.2120 ha         1 JP0       0.121000
     50 H19         31.6810    55.1180   -11.6610 ha         1 JP0       0.118000
     51 H20         21.9760    50.9340    -7.9230 ha         1 JP0       0.117000
     52 H21         23.8410    53.8500   -10.4480 ha         1 JP0       0.117000
     53 H22         21.9980    53.2160    -8.9090 ha         1 JP0       0.119000
@<TRIPOS>BOND
     1     1     2 1   
     2     1     6 1   
     3     1    11 2   
     4     2     3 1   
     5     2    32 1   
     6     3     4 2   
     7     3    10 1   
     8     4     8 1   
     9     5     7 1   
    10     5    12 2   
    11     5    33 1   
    12     6     8 ar  
    13     6    17 ar  
    14     7     9 1   
    15     7    13 1   
    16     8    22 ar  
    17     9    10 1   
    18     9    15 1   
    19    10    34 1   
    20    10    35 1   
    21    13    14 1   
    22    13    36 1   
    23    13    37 1   
    24    14    18 ar  
    25    14    19 ar  
    26    15    24 ar  
    27    15    25 ar  
    28    16    20 ar  
    29    16    21 ar  
    30    16    23 1   
    31    17    27 ar  
    32    17    38 1   
    33    18    21 ar  
    34    18    39 1   
    35    19    20 ar  
    36    19    40 1   
    37    20    41 1   
    38    21    42 1   
    39    22    28 ar  
    40    22    43 1   
    41    23    26 1   
    42    24    29 ar  
    43    24    44 1   
    44    25    30 ar  
    45    25    45 1   
    46    26    46 1   
    47    26    47 1   
    48    26    48 1   
    49    27    28 ar  
    50    27    49 1   
    51    28    50 1   
    52    29    31 ar  
    53    29    51 1   
    54    30    31 ar  
    55    30    52 1   
    56    31    53 1   
@<TRIPOS>SUBSTRUCTURE
     1 JP0         1 TEMP              0 ****  ****    0 ROOT
