@<TRIPOS>MOLECULE
JP1
   41    43     1     0     0
SMALL
bcc


@<TRIPOS>ATOM
      1 C2           3.5880     0.5750     0.3290 ca         1 JP1       0.057100
      2 C3           4.3700     0.2830     1.4300 ca         1 JP1      -0.087000
      3 C4           5.4810    -0.5400     1.3110 ca         1 JP1      -0.152000
      4 C5           5.7790    -1.0690     0.0670 ca         1 JP1       0.067400
      5 C10          1.2720     0.9460     0.4240 ca         1 JP1       0.124100
      6 C11          0.2310     1.8600     0.3050 ca         1 JP1       0.021400
      7 C12         -1.0950     1.4650     0.3000 ca         1 JP1      -0.104000
      8 C15          0.9510    -0.3980     0.5390 ca         1 JP1      -0.164000
      9 C19         -3.8230     0.1810    -0.1450 c          1 JP1       0.794100
     10 C23         -6.2380    -2.6300     0.1210 c6         1 JP1       0.118400
     11 C25         -7.2360    -0.8520    -0.9590 c6         1 JP1       0.118400
     12 C26         -6.2240     0.1300    -0.4060 c6         1 JP1       0.062000
     13 O20         -3.7760     1.2760    -0.6870 o          1 JP1      -0.619100
     14 N21         -4.9760    -0.5530    -0.0920 n          1 JP1      -0.482800
     15 O24         -7.4430    -1.9360    -0.0820 os         1 JP1      -0.393600
     16 C22         -5.1580    -1.7460     0.7200 c6         1 JP1       0.062000
     17 C13         -1.4120     0.1110     0.3950 ca         1 JP1       0.060600
     18 CL16         0.6080     3.5420     0.1760 cl         1 JP1      -0.084400
     19 C14         -0.3700    -0.8070     0.5140 ca         1 JP1      -0.154000
     20 O9           2.5360     1.4410     0.4500 os         1 JP1      -0.217200
     21 C1           3.8970     0.0390    -0.9250 ca         1 JP1       0.140100
     22 O7           3.0950     0.3610    -1.9480 oh         1 JP1      -0.468100
     23 C6           5.0040    -0.7930    -1.0490 ca         1 JP1      -0.219000
     24 CL27         7.1560    -2.1020    -0.1130 cl         1 JP1      -0.101400
     25 H3           4.1120     0.7100     2.3900 ha         1 JP1       0.156000
     26 H4           6.0940    -0.7630     2.1730 ha         1 JP1       0.155000
     27 H12         -1.8650     2.2160     0.2290 ha         1 JP1       0.180000
     28 H15          1.7280    -1.1440     0.6440 ha         1 JP1       0.143000
     29 H232        -5.8720    -3.0510    -0.8260 h1         1 JP1       0.055700
     30 H251        -8.1940    -0.3480    -1.0940 h1         1 JP1       0.055700
     31 H252        -6.9010    -1.2120    -1.9420 h1         1 JP1       0.055700
     32 H261        -6.6260     0.6110     0.4940 h1         1 JP1       0.056200
     33 H262        -6.0450     0.9060    -1.1450 h1         1 JP1       0.056200
     34 H221        -4.2560    -2.3550     0.7490 h1         1 JP1       0.056200
     35 H222        -5.4130    -1.4770     1.7520 h1         1 JP1       0.056200
     36 H14         -0.5880    -1.8660     0.5940 ha         1 JP1       0.128000
     37 HO7          3.3970    -0.0510    -2.7650 ho         1 JP1       0.432000
     38 H6           5.2600    -1.2170    -2.0120 ha         1 JP1       0.151000
     39 N17         -2.7190    -0.3850     0.4360 ns         1 JP1      -0.486100
     40 H231        -6.4390    -3.4580     0.8010 h1         1 JP1       0.055700
     41 H17         -2.7870    -1.3190     0.8020 hn         1 JP1       0.314500
@<TRIPOS>BOND
     1     1     2 ar  
     2     1    20 1   
     3     1    21 ar  
     4     2     3 ar  
     5     2    25 1   
     6     3     4 ar  
     7     3    26 1   
     8     4    23 ar  
     9     4    24 1   
    10     5     6 ar  
    11     5     8 ar  
    12     5    20 1   
    13     6     7 ar  
    14     6    18 1   
    15     7    17 ar  
    16     7    27 1   
    17     8    19 ar  
    18     8    28 1   
    19     9    13 2   
    20     9    14 1   
    21     9    39 1   
    22    10    15 1   
    23    10    16 1   
    24    10    29 1   
    25    10    40 1   
    26    11    12 1   
    27    11    15 1   
    28    11    30 1   
    29    11    31 1   
    30    12    14 1   
    31    12    32 1   
    32    12    33 1   
    33    14    16 1   
    34    16    34 1   
    35    16    35 1   
    36    17    19 ar  
    37    17    39 1   
    38    19    36 1   
    39    21    22 1   
    40    21    23 ar  
    41    22    37 1   
    42    23    38 1   
    43    39    41 1   
@<TRIPOS>SUBSTRUCTURE
     1 JP1         1 TEMP              0 ****  ****    0 ROOT
