@<TRIPOS>MOLECULE
JP1
   41    43     1     0     0
SMALL
No Charge or Current Charge


@<TRIPOS>ATOM
      1 C2           3.6950     0.5850     0.4650 ca         1 JP1       0.057100
      2 C3           4.5630     0.3370     1.5430 ca         1 JP1      -0.069000
      3 C4           5.6650    -0.5210     1.3740 ca         1 JP1      -0.134000
      4 C5           5.9010    -1.1230     0.1280 ca         1 JP1       0.159000
      5 C10          1.3140     1.0180     0.5220 ca         1 JP1       0.124100
      6 C11          0.3200     1.9610     0.1960 ca         1 JP1       0.113000
      7 C12         -1.0210     1.5620     0.0600 ca         1 JP1      -0.086000
      8 C15          0.9500    -0.3280     0.7270 ca         1 JP1      -0.146000
      9 C19         -3.9220     0.3530    -0.1920 c          1 JP1       0.660100
     10 C23         -6.2650    -2.7610     0.0150 c6         1 JP1       0.141600
     11 C25         -7.5810    -0.8730    -0.6060 c6         1 JP1       0.141600
     12 C26         -6.4260     0.1260    -0.3450 c6         1 JP1       0.062000
     13 O20         -4.0140     1.5430    -0.4650 o          1 JP1      -0.619100
     14 N21         -5.0630    -0.4840    -0.1970 n          1 JP1      -0.415800
     15 O24         -7.4700    -2.0150     0.2600 os         1 JP1      -0.440000
     16 C22         -5.0120    -1.8980     0.3130 c6         1 JP1       0.062000
     17 C13         -1.3890     0.2110     0.2550 ca         1 JP1      -0.032000
     18 Cl16         0.7390     3.6570    -0.0530 cl         1 JP1      -0.176000
     19 C14         -0.3920    -0.7240     0.5910 ca         1 JP1      -0.136000
     20 O9           2.6250     1.4300     0.6620 os         1 JP1      -0.217200
     21 C1           3.9410    -0.0150    -0.7950 ca         1 JP1       0.140100
     22 O7           3.1270     0.2350    -1.8670 oh         1 JP1      -0.507100
     23 C6           5.0440    -0.8700    -0.9560 ca         1 JP1      -0.201000
     24 Cl27         7.2800    -2.1930    -0.0800 cl         1 JP1      -0.193000
     25 H3           4.3780     0.8040     2.5070 ha         1 JP1       0.138000
     26 H4           6.3350    -0.7180     2.2070 ha         1 JP1       0.137000
     27 H12         -1.7540     2.3200    -0.1940 ha         1 JP1       0.162000
     28 H15          1.7000    -1.0690     0.9950 ha         1 JP1       0.125000
     29 H232        -6.2520    -3.0880    -1.0350 h1         1 JP1       0.055700
     30 H251        -8.5480    -0.3800    -0.4350 h1         1 JP1       0.055700
     31 H252        -7.5540    -1.2100    -1.6530 h1         1 JP1       0.055700
     32 H261        -6.6530     0.6840     0.5750 h1         1 JP1       0.056200
     33 H262        -6.4120     0.8570    -1.1650 h1         1 JP1       0.056200
     34 H221        -4.1430    -2.4170    -0.1170 h1         1 JP1       0.056200
     35 H222        -4.8640    -1.8670     1.4020 h1         1 JP1       0.056200
     36 H14         -0.6570    -1.7670     0.7510 ha         1 JP1       0.110000
     37 HO7          3.4680    -0.2580    -2.6430 ho         1 JP1       0.471000
     38 H6           5.2480    -1.3390    -1.9140 ha         1 JP1       0.133000
     39 N17         -2.7230    -0.2700     0.1370 ns         1 JP1      -0.160000
     40 H231        -6.2600    -3.6600     0.6470 h1         1 JP1       0.055700
     41 H17         -2.8150    -1.2570     0.3330 hn         1 JP1       0.148000
@<TRIPOS>BOND
     1     1     2 ar  
     2     1    20 1   
     3     1    21 ar  
     4     2     3 ar  
     5     2    25 1   
     6     3     4 ar  
     7     3    26 1   
     8     4    23 ar  
     9     4    24 1   
    10     5     6 ar  
    11     5     8 ar  
    12     5    20 1   
    13     6     7 ar  
    14     6    18 1   
    15     7    17 ar  
    16     7    27 1   
    17     8    19 ar  
    18     8    28 1   
    19     9    13 2   
    20     9    14 1   
    21     9    39 1   
    22    10    15 1   
    23    10    16 1   
    24    10    29 1   
    25    10    40 1   
    26    11    12 1   
    27    11    15 1   
    28    11    30 1   
    29    11    31 1   
    30    12    14 1   
    31    12    32 1   
    32    12    33 1   
    33    14    16 1   
    34    16    34 1   
    35    16    35 1   
    36    17    19 ar  
    37    17    39 1   
    38    19    36 1   
    39    21    22 1   
    40    21    23 ar  
    41    22    37 1   
    42    23    38 1   
    43    39    41 1   
@<TRIPOS>SUBSTRUCTURE
     1 JP1         1 TEMP              0 ****  ****    0 ROOT
