@<TRIPOS>MOLECULE
JP2
   19    20     1     0     0
SMALL
No Charge or Current Charge


@<TRIPOS>ATOM
      1 C1           2.6620     1.0700    -0.0850 cc         1 JP2       0.912100
      2 N1           3.5270     2.0270    -0.1160 nv         1 JP2      -1.074200
      3 O1           2.6060    -2.3570     0.0110 o          1 JP2      -0.553100
      4 C2           2.1540    -1.2190    -0.0180 c          1 JP2       0.642000
      5 N2           3.0510    -0.1520    -0.0510 nd         1 JP2      -0.824100
      6 O2          -3.6660     1.5550    -0.0700 o          1 JP2      -0.686500
      7 C3           0.6880    -0.9010    -0.0170 ca         1 JP2       0.148500
      8 N3           1.3800     1.4230    -0.1080 na         1 JP2      -0.894100
      9 O3          -4.2240    -0.5140     0.0090 o          1 JP2      -0.686500
     10 C4           0.3880     0.4810    -0.0630 ca         1 JP2       0.521900
     11 N4          -0.8860     0.9110    -0.0690 nb         1 JP2      -0.662000
     12 C5          -1.8810    -0.0450    -0.0270 ca         1 JP2       0.298500
     13 N5          -0.2750    -1.8790     0.0260 nb         1 JP2      -0.594000
     14 C6          -1.5590    -1.4280     0.0200 ca         1 JP2       0.271900
     15 C7          -3.3680     0.3640    -0.0300 c          1 JP2       0.615500
     16 HN1          4.4570     1.6750     0.0630 hn         1 JP2       0.501500
     17 HN1A         3.2790     2.8360     0.4340 hn         1 JP2       0.501500
     18 HN3          1.1350     2.3920    -0.2050 hn         1 JP2       0.508000
     19 H6          -2.3340    -2.1920     0.0540 h4         1 JP2       0.053100
@<TRIPOS>BOND
     1     1     2 1   
     2     1     5 2   
     3     1     8 1   
     4     2    16 1   
     5     2    17 1   
     6     3     4 2   
     7     4     5 1   
     8     4     7 1   
     9     6    15 1   
    10     7    10 ar  
    11     7    13 ar  
    12     8    10 1   
    13     8    18 1   
    14     9    15 1   
    15    10    11 ar  
    16    11    12 ar  
    17    12    14 ar  
    18    12    15 1   
    19    13    14 ar  
    20    14    19 1   
@<TRIPOS>SUBSTRUCTURE
     1 JP2         1 TEMP              0 ****  ****    0 ROOT
