@<TRIPOS>MOLECULE
JP2
   19    20     1     0     0
SMALL
abcg2


@<TRIPOS>ATOM
      1 C1           2.6280     1.0250    -0.0030 cc         1 JP2       0.912100
      2 N1           3.5370     1.9960    -0.0010 nv         1 JP2      -1.074200
      3 O1           2.4740    -2.4160    -0.0050 o          1 JP2      -0.553100
      4 C2           2.1230    -1.2460    -0.0040 c          1 JP2       0.642000
      5 N2           3.0210    -0.2270     0.0030 nd         1 JP2      -0.824100
      6 O2          -3.5450     1.5930    -0.0110 o          1 JP2      -0.686500
      7 C3           0.6860    -0.8800    -0.0110 ca         1 JP2       0.148500
      8 N3           1.3240     1.4060    -0.0170 na         1 JP2      -0.894100
      9 O3          -4.1540    -0.5580    -0.0660 o          1 JP2      -0.686500
     10 C4           0.3300     0.4660    -0.0180 ca         1 JP2       0.521900
     11 N4          -0.9270     0.8780    -0.0260 nb         1 JP2      -0.662000
     12 C5          -1.8610    -0.0580    -0.0280 ca         1 JP2       0.298500
     13 N5          -0.2530    -1.8160    -0.0120 nb         1 JP2      -0.594000
     14 C6          -1.5100    -1.4160    -0.0220 ca         1 JP2       0.271900
     15 C7          -3.3310     0.3740    -0.0360 c          1 JP2       0.615500
     16 HN1          4.5110     1.7500     0.0300 hn         1 JP2       0.501500
     17 HN1A         3.2920     2.9700     0.0290 hn         1 JP2       0.501500
     18 HN3          1.0630     2.3830    -0.0230 hn         1 JP2       0.508000
     19 H6          -2.2770    -2.1780    -0.0210 h4         1 JP2       0.053100
@<TRIPOS>BOND
     1     1     2 1   
     2     1     5 2   
     3     1     8 1   
     4     2    16 1   
     5     2    17 1   
     6     3     4 2   
     7     4     5 1   
     8     4     7 1   
     9     6    15 1   
    10     7    10 ar  
    11     7    13 ar  
    12     8    10 1   
    13     8    18 1   
    14     9    15 1   
    15    10    11 ar  
    16    11    12 ar  
    17    12    14 ar  
    18    12    15 1   
    19    13    14 ar  
    20    14    19 1   
@<TRIPOS>SUBSTRUCTURE
     1 JP2         1 TEMP              0 ****  ****    0 ROOT
