@<TRIPOS>MOLECULE
JP3
   31    33     1     0     0
SMALL
No Charge or Current Charge


@<TRIPOS>ATOM
      1 C1          -3.7490     1.7870     0.7840 cc         1 JP3       0.757800
      2 N1          -4.3010     2.7340     1.5050 nv         1 JP3      -1.054200
      3 O1          -4.8580    -0.2560    -1.8150 o          1 JP3      -0.481000
      4 C2          -4.1110     0.2260    -0.9740 c          1 JP3       0.490500
      5 N2          -4.5280     1.2160    -0.1480 ns         1 JP3      -0.460400
      6 O2           1.8800    -2.1290    -0.6550 o          1 JP3      -0.587100
      7 C3          -2.6840    -0.1920    -0.7490 ca         1 JP3       0.160500
      8 N3          -2.5060     1.5190     1.0700 nd         1 JP3      -0.783700
      9 O3           5.5240    -0.7630     0.0730 os         1 JP3      -0.222000
     10 C4          -1.9510     0.4880     0.2730 ca         1 JP3       0.331000
     11 N4          -0.6640     0.1320     0.4940 nb         1 JP3      -0.134000
     12 C5          -0.1110    -0.8540    -0.2570 ca         1 JP3       0.035500
     13 N5          -2.1410    -1.1870    -1.5130 nb         1 JP3      -0.563000
     14 C6          -0.8530    -1.5090    -1.2570 ca         1 JP3       0.292900
     15 N6           1.9870    -0.5620     0.9870 ns         1 JP3      -0.483900
     16 C7           1.3230    -1.2500    -0.0120 c          1 JP3       0.512600
     17 C8           3.3920    -0.7790     1.3600 c3         1 JP3       0.078700
     18 C9           4.3650    -0.1070     0.4270 cc         1 JP3       0.092300
     19 C10          4.3300     1.1200    -0.1780 cd         1 JP3      -0.172000
     20 C11          5.5080     1.2350    -0.9440 cd         1 JP3      -0.192000
     21 C12          6.2160     0.0760    -0.7740 cc         1 JP3       0.129900
     22 HN1         -5.2830     2.6130     1.7200 hn         1 JP3       0.515500
     23 HN1A        -3.7280     3.0040     2.2940 hn         1 JP3       0.515500
     24 HN2         -5.4690     1.5530    -0.2750 hn         1 JP3       0.327500
     25 H6          -0.4170    -2.3020    -1.8650 h4         1 JP3       0.062100
     26 HN6          1.4580     0.1520     1.4780 hn         1 JP3       0.348500
     27 H8           3.5510    -0.3920     2.3750 h1         1 JP3       0.075200
     28 H8A          3.5960    -1.8580     1.3810 h1         1 JP3       0.075200
     29 H10          3.5410     1.8590    -0.0830 ha         1 JP3       0.139000
     30 H11          5.8070     2.0800    -1.5560 ha         1 JP3       0.142000
     31 H12          7.1640    -0.2650    -1.1670 h4         1 JP3       0.054100
@<TRIPOS>BOND
     1     1     2 1   
     2     1     5 1   
     3     1     8 2   
     4     2    22 1   
     5     2    23 1   
     6     3     4 2   
     7     4     5 1   
     8     4     7 1   
     9     5    24 1   
    10     6    16 2   
    11     7    10 ar  
    12     7    13 ar  
    13     8    10 1   
    14     9    18 1   
    15     9    21 1   
    16    10    11 ar  
    17    11    12 ar  
    18    12    14 ar  
    19    12    16 1   
    20    13    14 ar  
    21    14    25 1   
    22    15    16 1   
    23    15    17 1   
    24    15    26 1   
    25    17    18 1   
    26    17    27 1   
    27    17    28 1   
    28    18    19 2   
    29    19    20 1   
    30    19    29 1   
    31    20    21 2   
    32    20    30 1   
    33    21    31 1   
@<TRIPOS>SUBSTRUCTURE
     1 JP3         1 TEMP              0 ****  ****    0 ROOT
