@<TRIPOS>MOLECULE
JP3
   31    33     1     0     0
SMALL
bcc


@<TRIPOS>ATOM
      1 C1          -3.5250     1.8710     0.5080 cc         1 JP3       0.757800
      2 N1          -4.0070     2.9930     1.0320 nv         1 JP3      -0.943800
      3 O1          -4.8590    -0.6770    -1.5350 o          1 JP3      -0.556500
      4 C2          -4.0570    -0.0560    -0.8740 c          1 JP3       0.633000
      5 N2          -4.3880     1.1250    -0.2480 ns         1 JP3      -0.527400
      6 O2           1.7360    -2.5040    -0.4380 o          1 JP3      -0.587100
      7 C3          -2.6630    -0.4470    -0.6400 ca         1 JP3       0.160500
      8 N3          -2.2810     1.5290     0.7230 nd         1 JP3      -0.783700
      9 O3           4.3000    -0.1560    -0.8700 os         1 JP3      -0.310800
     10 C4          -1.8520     0.3830     0.1600 ca         1 JP3       0.594000
     11 N4          -0.5820     0.0220     0.3820 nb         1 JP3      -0.660000
     12 C5          -0.1500    -1.0920    -0.1650 ca         1 JP3       0.298500
     13 N5          -2.2210    -1.5680    -1.1880 nb         1 JP3      -0.563000
     14 C6          -0.9680    -1.9030    -0.9620 ca         1 JP3       0.292900
     15 N6           1.9460    -0.6850     0.9060 ns         1 JP3      -0.550900
     16 C7           1.2790    -1.4990     0.0830 c          1 JP3       0.579600
     17 C8           3.3390    -0.8580     1.2500 c3         1 JP3       0.078700
     18 C9           4.2400     0.0280     0.4660 cc         1 JP3       0.202000
     19 C10          5.0550     1.0490     0.8270 cd         1 JP3      -0.255300
     20 C11          5.6620     1.5230    -0.3770 cd         1 JP3      -0.275300
     21 C12          5.1620     0.7540    -1.3710 cc         1 JP3       0.239600
     22 HN1         -4.9620     3.2840     0.9120 hn         1 JP3       0.460300
     23 HN1A        -3.4100     3.5560     1.6140 hn         1 JP3       0.460300
     24 HN2         -5.3410     1.4470    -0.3660 hn         1 JP3       0.327500
     25 H6          -0.5980    -2.8170    -1.4050 h4         1 JP3       0.062100
     26 HN6          1.4640     0.1340     1.2460 hn         1 JP3       0.348500
     27 H8           3.4710    -0.6290     2.3080 h1         1 JP3       0.075200
     28 H8A          3.6050    -1.9070     1.1140 h1         1 JP3       0.075200
     29 H10          5.2030     1.4220     1.8270 ha         1 JP3       0.157000
     30 H11          6.3700     2.3290    -0.4820 ha         1 JP3       0.160000
     31 H12          5.3180     0.7370    -2.4380 h4         1 JP3       0.054100
@<TRIPOS>BOND
     1     1     2 1   
     2     1     5 1   
     3     1     8 2   
     4     2    22 1   
     5     2    23 1   
     6     3     4 2   
     7     4     5 1   
     8     4     7 1   
     9     5    24 1   
    10     6    16 2   
    11     7    10 ar  
    12     7    13 ar  
    13     8    10 1   
    14     9    18 1   
    15     9    21 1   
    16    10    11 ar  
    17    11    12 ar  
    18    12    14 ar  
    19    12    16 1   
    20    13    14 ar  
    21    14    25 1   
    22    15    16 1   
    23    15    17 1   
    24    15    26 1   
    25    17    18 1   
    26    17    27 1   
    27    17    28 1   
    28    18    19 2   
    29    19    20 1   
    30    19    29 1   
    31    20    21 2   
    32    20    30 1   
    33    21    31 1   
@<TRIPOS>SUBSTRUCTURE
     1 JP3         1 TEMP              0 ****  ****    0 ROOT
