@<TRIPOS>MOLECULE
JP4
   29    30     1     0     0
SMALL
abcg2


@<TRIPOS>ATOM
      1 C10         -1.7450     0.7450    -1.1000 c6         1 JP4       0.148300
      2 C13         -2.7250    -0.9370     0.9240 c6         1 JP4       0.152100
      3 C01          3.1380     1.4770    -0.0840 ca         1 JP4      -0.127000
      4 C02          2.1140     2.3500    -0.4140 ca         1 JP4      -0.094000
      5 C03          0.8030     1.8970    -0.4390 ca         1 JP4      -0.152000
      6 C04          0.4970     0.5670    -0.1490 ca         1 JP4       0.258000
      7 C05          1.5370    -0.3240     0.1680 ca         1 JP4      -0.087300
      8 C06          2.8440     0.1510     0.2050 ca         1 JP4      -0.073000
      9 C07          1.2430    -1.7750     0.4350 c3         1 JP4       0.209900
     10 O08          2.3830    -2.5550     0.1610 oh         1 JP4      -0.662000
     11 N09         -0.8260     0.0820    -0.1940 nh         1 JP4      -0.785400
     12 C11         -2.9890    -0.1140    -1.2430 c6         1 JP4       0.152100
     13 O12         -3.6120    -0.3410     0.0030 os         1 JP4      -0.450000
     14 C14         -1.4610    -0.1200     1.1030 c6         1 JP4       0.148300
     15 H102        -2.0360     1.7470    -0.7510 h1         1 JP4       0.045700
     16 H101        -1.2770     0.8610    -2.0790 h1         1 JP4       0.045700
     17 H132        -3.2540    -1.0210     1.8750 h1         1 JP4       0.050950
     18 H131        -2.4540    -1.9510     0.5960 h1         1 JP4       0.050950
     19 H021         2.3280     3.3860    -0.6430 ha         1 JP4       0.112000
     20 H031         0.0100     2.5920    -0.6840 ha         1 JP4       0.112000
     21 H061         3.6530    -0.5250     0.4460 ha         1 JP4       0.130000
     22 H071         0.9350    -1.9020     1.4830 h1         1 JP4       0.031700
     23 H072         0.3830    -2.0790    -0.1740 h1         1 JP4       0.031700
     24 H081         2.1250    -3.4790     0.2160 ho         1 JP4       0.444000
     25 H111        -3.7180     0.3890    -1.8800 h1         1 JP4       0.050950
     26 H112        -2.7160    -1.0660    -1.7190 h1         1 JP4       0.050950
     27 H141        -1.6970     0.8430     1.5810 h1         1 JP4       0.045700
     28 H142        -0.7920    -0.6580     1.7750 h1         1 JP4       0.045700
     29 H011         4.1650     1.8200    -0.0590 ha         1 JP4       0.114000
@<TRIPOS>BOND
     1     1    11 1   
     2     1    12 1   
     3     1    15 1   
     4     1    16 1   
     5     2    13 1   
     6     2    14 1   
     7     2    17 1   
     8     2    18 1   
     9     3     4 ar  
    10     3     8 ar  
    11     3    29 1   
    12     4     5 ar  
    13     4    19 1   
    14     5     6 ar  
    15     5    20 1   
    16     6     7 ar  
    17     6    11 1   
    18     7     8 ar  
    19     7     9 1   
    20     8    21 1   
    21     9    10 1   
    22     9    22 1   
    23     9    23 1   
    24    10    24 1   
    25    11    14 1   
    26    12    13 1   
    27    12    25 1   
    28    12    26 1   
    29    14    27 1   
    30    14    28 1   
@<TRIPOS>SUBSTRUCTURE
     1 JP4         1 TEMP              0 ****  ****    0 ROOT
