@<TRIPOS>MOLECULE
JP4
   29    30     1     0     0
SMALL
No Charge or Current Charge


@<TRIPOS>ATOM
      1 C10         -1.7400     0.6430    -1.2200 c6         1 JP4       0.148300
      2 C13         -2.8190    -0.8720     1.0160 c6         1 JP4       0.152100
      3 C01          3.2060     1.5130    -0.0400 ca         1 JP4      -0.127000
      4 C02          2.1710     2.4220    -0.2950 ca         1 JP4      -0.094000
      5 C03          0.8410     1.9730    -0.3250 ca         1 JP4      -0.152000
      6 C04          0.5300     0.6160    -0.1080 ca         1 JP4       0.258000
      7 C05          1.5790    -0.3090     0.1350 ca         1 JP4      -0.087300
      8 C06          2.9130     0.1580     0.1770 ca         1 JP4      -0.073000
      9 C07          1.2850    -1.7960     0.3690 c3         1 JP4       0.209900
     10 O08          2.3000    -2.6370    -0.2010 oh         1 JP4      -0.662000
     11 N09         -0.8250     0.2090    -0.1160 nh         1 JP4      -0.785400
     12 C11         -3.0210    -0.2430    -1.2990 c6         1 JP4       0.152100
     13 O12         -3.6750    -0.3140    -0.0090 os         1 JP4      -0.450000
     14 C14         -1.5280    -0.0150     1.1870 c6         1 JP4       0.148300
     15 H102        -2.0460     1.6880    -1.0670 h1         1 JP4       0.045700
     16 H101        -1.2180     0.5910    -2.1870 h1         1 JP4       0.045700
     17 H132        -3.3710    -0.9090     1.9660 h1         1 JP4       0.050950
     18 H131        -2.5490    -1.9020     0.7400 h1         1 JP4       0.050950
     19 H021         2.3960     3.4740    -0.4600 ha         1 JP4       0.112000
     20 H031         0.0450     2.6900    -0.5040 ha         1 JP4       0.112000
     21 H061         3.7290    -0.5340     0.3770 ha         1 JP4       0.130000
     22 H071         1.2130    -1.9700     1.4510 h1         1 JP4       0.031700
     23 H072         0.3130    -2.0600    -0.0680 h1         1 JP4       0.031700
     24 H081         2.0280    -3.5640    -0.0250 ho         1 JP4       0.444000
     25 H111        -3.7200     0.1770    -2.0360 h1         1 JP4       0.050950
     26 H112        -2.7520    -1.2580    -1.6240 h1         1 JP4       0.050950
     27 H141        -1.8020     0.9530     1.6330 h1         1 JP4       0.045700
     28 H142        -0.8630    -0.5230     1.9000 h1         1 JP4       0.045700
     29 H011         4.2380     1.8580    -0.0090 ha         1 JP4       0.114000
@<TRIPOS>BOND
     1     1    11 1   
     2     1    12 1   
     3     1    15 1   
     4     1    16 1   
     5     2    13 1   
     6     2    14 1   
     7     2    17 1   
     8     2    18 1   
     9     3     4 ar  
    10     3     8 ar  
    11     3    29 1   
    12     4     5 ar  
    13     4    19 1   
    14     5     6 ar  
    15     5    20 1   
    16     6     7 ar  
    17     6    11 1   
    18     7     8 ar  
    19     7     9 1   
    20     8    21 1   
    21     9    10 1   
    22     9    22 1   
    23     9    23 1   
    24    10    24 1   
    25    11    14 1   
    26    12    13 1   
    27    12    25 1   
    28    12    26 1   
    29    14    27 1   
    30    14    28 1   
@<TRIPOS>SUBSTRUCTURE
     1 JP4         1 TEMP              0 ****  ****    0 ROOT
