@<TRIPOS>MOLECULE
JP5
   30    31     1     0     0
SMALL
bcc


@<TRIPOS>ATOM
      1 O            2.6080    -1.7410     1.1410 o          1 JP5      -0.554500
      2 C            3.1200    -0.7870     0.6160 c          1 JP5       0.682500
      3 ND2          4.3650    -0.2840     0.8900 ns         1 JP5      -0.617500
      4 CG           4.6470     0.9080     0.2600 c          1 JP5       0.714500
      5 OD1          5.6910     1.5020     0.3500 o          1 JP5      -0.567500
      6 CB           3.4130     1.3190    -0.5060 c5         1 JP5      -0.182400
      7 CA           2.5240     0.0790    -0.4910 c5         1 JP5       0.037700
      8 N            1.1310     0.3360    -0.3060 ns         1 JP5      -0.552900
      9 CAI          0.1800    -0.4480    -0.8620 c          1 JP5       0.764100
     10 OAK          0.3880    -1.3340    -1.6630 o          1 JP5      -0.579000
     11 OAJ         -1.0300    -0.0930    -0.4300 os         1 JP5      -0.430900
     12 CAL         -2.1480    -0.8200    -0.9610 c3         1 JP5       0.209700
     13 CAM         -3.3770    -0.2680    -0.3040 ca         1 JP5      -0.105300
     14 CAN         -3.7900    -0.7510     0.9350 ca         1 JP5      -0.101000
     15 CAO         -4.9130    -0.2250     1.5580 ca         1 JP5      -0.133500
     16 CAP         -5.6340     0.7930     0.9460 ca         1 JP5      -0.114000
     17 CAQ         -5.2280     1.2800    -0.2900 ca         1 JP5      -0.133500
     18 CAR         -4.1040     0.7520    -0.9100 ca         1 JP5      -0.101000
     19 H1           5.0070    -0.7230     1.5380 hn         1 JP5       0.345500
     20 H2           2.9500     2.1550     0.0250 hc         1 JP5       0.093200
     21 H3           3.6680     1.6650    -1.5060 hc         1 JP5       0.093200
     22 H4           2.6550    -0.4780    -1.4220 h1         1 JP5       0.117700
     23 H5           0.8600     0.9800     0.4220 hn         1 JP5       0.331500
     24 H6          -2.1960    -0.6920    -2.0440 h1         1 JP5       0.059200
     25 H7          -2.0370    -1.8840    -0.7470 h1         1 JP5       0.059200
     26 H8          -3.2320    -1.5480     1.4140 ha         1 JP5       0.133500
     27 H9          -5.2260    -0.6100     2.5190 ha         1 JP5       0.133500
     28 H10         -6.5100     1.2040     1.4300 ha         1 JP5       0.132000
     29 H11         -5.7890     2.0700    -0.7730 ha         1 JP5       0.133500
     30 H12         -3.7940     1.1330    -1.8760 ha         1 JP5       0.133500
@<TRIPOS>BOND
     1     1     2 2   
     2     2     3 1   
     3     2     7 1   
     4     3     4 1   
     5     3    19 1   
     6     4     5 2   
     7     4     6 1   
     8     6     7 1   
     9     6    20 1   
    10     6    21 1   
    11     7     8 1   
    12     7    22 1   
    13     8     9 1   
    14     8    23 1   
    15     9    10 2   
    16     9    11 1   
    17    11    12 1   
    18    12    13 1   
    19    12    24 1   
    20    12    25 1   
    21    13    14 ar  
    22    13    18 ar  
    23    14    15 ar  
    24    14    26 1   
    25    15    16 ar  
    26    15    27 1   
    27    16    17 ar  
    28    16    28 1   
    29    17    18 ar  
    30    17    29 1   
    31    18    30 1   
@<TRIPOS>SUBSTRUCTURE
     1 JP5         1 TEMP              0 ****  ****    0 ROOT
