@<TRIPOS>MOLECULE
JP5
   30    31     1     0     0
SMALL
No Charge or Current Charge


@<TRIPOS>ATOM
      1 O            3.2310    -0.6990     2.4070 o          1 JP5      -0.479000
      2 C            3.4240    -0.2790     1.2760 c          1 JP5       0.540000
      3 ND2          4.4770     0.4760     0.8790 ns         1 JP5      -0.483500
      4 CG           4.5280     0.9930    -0.3730 c          1 JP5       0.572000
      5 OD1          5.5430     1.3880    -0.9200 o          1 JP5      -0.492000
      6 CB           3.1390     0.6910    -0.9500 c5         1 JP5      -0.182400
      7 CA           2.6160    -0.4670    -0.0340 c5         1 JP5       0.037700
      8 N            1.1860    -0.2090     0.2430 ns         1 JP5      -0.485900
      9 CAI          0.2620    -0.5590    -0.7060 c          1 JP5       0.648100
     10 OAK          0.5100    -1.0820    -1.7830 o          1 JP5      -0.530000
     11 OAJ         -0.9770    -0.2400    -0.2450 os         1 JP5      -0.454100
     12 CAL         -2.0970    -0.5330    -1.0960 c3         1 JP5       0.232900
     13 CAM         -3.3680    -0.0930    -0.3820 ca         1 JP5      -0.105300
     14 CAN         -4.0610    -0.9900     0.4550 ca         1 JP5      -0.083000
     15 CAO         -5.2350    -0.5830     1.1130 ca         1 JP5      -0.115500
     16 CAP         -5.7230     0.7230     0.9390 ca         1 JP5      -0.096000
     17 CAQ         -5.0360     1.6220     0.1070 ca         1 JP5      -0.115500
     18 CAR         -3.8610     1.2170    -0.5510 ca         1 JP5      -0.083000
     19 H1           5.2550     0.6150     1.5060 hn         1 JP5       0.345500
     20 H2           2.5390     1.5950    -0.7940 hc         1 JP5       0.093200
     21 H3           3.1810     0.4780    -2.0230 hc         1 JP5       0.093200
     22 H4           2.8350    -1.4670    -0.4360 h1         1 JP5       0.117700
     23 H5           0.8240     0.1950     1.0990 hn         1 JP5       0.331500
     24 H6          -2.0100    -0.0010    -2.0520 h1         1 JP5       0.059200
     25 H7          -2.1510    -1.6090    -1.3130 h1         1 JP5       0.059200
     26 H8          -3.6890    -2.0030     0.5980 ha         1 JP5       0.115500
     27 H9          -5.7660    -1.2810     1.7580 ha         1 JP5       0.115500
     28 H10         -6.6320     1.0370     1.4480 ha         1 JP5       0.114000
     29 H11         -5.4110     2.6340    -0.0270 ha         1 JP5       0.115500
     30 H12         -3.3330     1.9200    -1.1910 ha         1 JP5       0.115500
@<TRIPOS>BOND
     1     1     2 2   
     2     2     3 1   
     3     2     7 1   
     4     3     4 1   
     5     3    19 1   
     6     4     5 2   
     7     4     6 1   
     8     6     7 1   
     9     6    20 1   
    10     6    21 1   
    11     7     8 1   
    12     7    22 1   
    13     8     9 1   
    14     8    23 1   
    15     9    10 2   
    16     9    11 1   
    17    11    12 1   
    18    12    13 1   
    19    12    24 1   
    20    12    25 1   
    21    13    14 ar  
    22    13    18 ar  
    23    14    15 ar  
    24    14    26 1   
    25    15    16 ar  
    26    15    27 1   
    27    16    17 ar  
    28    16    28 1   
    29    17    18 ar  
    30    17    29 1   
    31    18    30 1   
@<TRIPOS>SUBSTRUCTURE
     1 JP5         1 TEMP              0 ****  ****    0 ROOT
