@<TRIPOS>MOLECULE
JP7
   35    38     1     0     0
SMALL
abcg2


@<TRIPOS>ATOM
      1 C13         -2.6000     1.4800    -0.3670 c5         1 JP7       0.129000
      2 C17         -3.5520    -2.0550     0.1890 c5         1 JP7      -0.169400
      3 C01          5.4960    -1.5610    -0.2930 c3         1 JP7       0.148900
      4 C03          3.5060    -0.2960    -0.0350 ca         1 JP7       0.180100
      5 C04          2.7030    -1.4340    -0.0490 ca         1 JP7      -0.235000
      6 C05          1.3270    -1.2860     0.0710 ca         1 JP7      -0.017000
      7 C06          0.7270    -0.0460     0.2010 ca         1 JP7      -0.187300
      8 C07         -0.7370     0.1980     0.3530 c5         1 JP7       0.187800
      9 C08         -1.0750     1.4880    -0.3780 c5         1 JP7      -0.131700
     10 C09         -0.3340     2.6160     0.2870 c6         1 JP7       0.182600
     11 C11          1.5480     1.0930     0.1950 ca         1 JP7       0.186100
     12 C12          2.9240     0.9660     0.0820 ca         1 JP7      -0.186000
     13 C18         -3.9790    -0.6210    -0.0520 c          1 JP7       0.565000
     14 N14         -2.8600     0.0520    -0.3280 n          1 JP7      -0.315200
     15 N15         -1.6650    -0.7360    -0.2580 n3         1 JP7      -0.401600
     16 O02          4.8480    -0.3140    -0.1360 os         1 JP7      -0.338100
     17 O10          1.0730     2.3560     0.2820 os         1 JP7      -0.351100
     18 O19         -5.1060    -0.1480    -0.0270 o          1 JP7      -0.543000
     19 C16         -2.0760    -1.9000     0.5350 c5         1 JP7       0.120800
     20 H132        -3.0180     1.9650     0.5190 h1         1 JP7       0.060700
     21 H131        -3.0280     1.9460    -1.2540 h1         1 JP7       0.060700
     22 H172        -4.1360    -2.5190     0.9810 hc         1 JP7       0.084200
     23 H171        -3.7000    -2.6370    -0.7250 hc         1 JP7       0.084200
     24 H011         6.5600    -1.3500    -0.3620 h1         1 JP7       0.042367
     25 H012         5.3230    -2.2230     0.5600 h1         1 JP7       0.042367
     26 H013         5.1790    -2.0730    -1.2050 h1         1 JP7       0.042367
     27 H041         3.1200    -2.4260    -0.1510 ha         1 JP7       0.121000
     28 H051         0.7130    -2.1780     0.0620 ha         1 JP7       0.113000
     29 H071        -0.9830     0.3260     1.4230 h1         1 JP7       0.048700
     30 H081        -0.7340     1.3950    -1.4140 hc         1 JP7       0.095700
     31 H091        -0.4700     3.5640    -0.2350 h1         1 JP7       0.059700
     32 H092        -0.6730     2.7450     1.3200 h1         1 JP7       0.059700
     33 H121         3.5500     1.8500     0.0740 ha         1 JP7       0.144000
     34 H161        -1.9590    -1.7050     1.6090 h1         1 JP7       0.058200
     35 H162        -1.4780    -2.7710     0.2730 h1         1 JP7       0.058200
@<TRIPOS>BOND
     1     1     9 1   
     2     1    14 1   
     3     1    20 1   
     4     1    21 1   
     5     2    13 1   
     6     2    19 1   
     7     2    22 1   
     8     2    23 1   
     9     3    16 1   
    10     3    24 1   
    11     3    25 1   
    12     3    26 1   
    13     4     5 ar  
    14     4    12 ar  
    15     4    16 1   
    16     5     6 ar  
    17     5    27 1   
    18     6     7 ar  
    19     6    28 1   
    20     7     8 1   
    21     7    11 ar  
    22     8     9 1   
    23     8    15 1   
    24     8    29 1   
    25     9    10 1   
    26     9    30 1   
    27    10    17 1   
    28    10    31 1   
    29    10    32 1   
    30    11    12 ar  
    31    11    17 1   
    32    12    33 1   
    33    13    14 1   
    34    13    18 2   
    35    14    15 1   
    36    15    19 1   
    37    19    34 1   
    38    19    35 1   
@<TRIPOS>SUBSTRUCTURE
     1 JP7         1 TEMP              0 ****  ****    0 ROOT
