@<TRIPOS>MOLECULE
JP7
   35    38     1     0     0
SMALL
No Charge or Current Charge


@<TRIPOS>ATOM
      1 C13         -2.6750     1.4780    -0.2380 c5         1 JP7       0.129000
      2 C17         -3.5580    -2.0830     0.0150 c5         1 JP7      -0.169400
      3 C01          5.5980    -1.6320    -0.2640 c3         1 JP7       0.148900
      4 C03          3.5390    -0.2840    -0.0880 ca         1 JP7       0.180100
      5 C04          2.7140    -1.4200     0.0320 ca         1 JP7      -0.235000
      6 C05          1.3240    -1.2730     0.1700 ca         1 JP7      -0.017000
      7 C06          0.7340     0.0070     0.1840 ca         1 JP7      -0.187300
      8 C07         -0.7740     0.1780     0.3780 c5         1 JP7       0.187800
      9 C08         -1.1270     1.4960    -0.3550 c5         1 JP7      -0.131700
     10 C09         -0.3480     2.6630     0.2560 c6         1 JP7       0.182600
     11 C11          1.5760     1.1460     0.0760 ca         1 JP7       0.186100
     12 C12          2.9610     0.9910    -0.0660 ca         1 JP7      -0.186000
     13 C18         -4.0420    -0.6440    -0.1330 c          1 JP7       0.565000
     14 N14         -2.8490     0.0240    -0.4180 n          1 JP7      -0.315200
     15 N15         -1.6690    -0.7540    -0.3570 n3         1 JP7      -0.401600
     16 O02          4.9080    -0.3690    -0.2280 os         1 JP7      -0.338100
     17 O10          1.0670     2.4360     0.0610 os         1 JP7      -0.351100
     18 O19         -5.0770    -0.1080     0.2410 o          1 JP7      -0.543000
     19 C16         -2.1110    -1.8630     0.5470 c5         1 JP7       0.120800
     20 H132        -3.0270     1.8050     0.7490 h1         1 JP7       0.060700
     21 H131        -3.1700     2.0660    -1.0220 h1         1 JP7       0.060700
     22 H172        -4.2130    -2.6750     0.6610 hc         1 JP7       0.084200
     23 H171        -3.4840    -2.5310    -0.9820 hc         1 JP7       0.084200
     24 H011         6.6770    -1.4720    -0.3810 h1         1 JP7       0.042367
     25 H012         5.4370    -2.1900     0.6670 h1         1 JP7       0.042367
     26 H013         5.2510    -2.2420    -1.1070 h1         1 JP7       0.042367
     27 H041         3.1310    -2.4230     0.0220 ha         1 JP7       0.121000
     28 H051         0.7080    -2.1630     0.2680 ha         1 JP7       0.113000
     29 H071        -1.0210     0.2540     1.4480 h1         1 JP7       0.048700
     30 H081        -0.8320     1.4550    -1.4110 hc         1 JP7       0.095700
     31 H091        -0.6300     3.6180    -0.2100 h1         1 JP7       0.059700
     32 H092        -0.5530     2.7300     1.3340 h1         1 JP7       0.059700
     33 H121         3.5920     1.8690    -0.1610 ha         1 JP7       0.144000
     34 H161        -2.1370    -1.5670     1.6050 h1         1 JP7       0.058200
     35 H162        -1.4870    -2.7610     0.4530 h1         1 JP7       0.058200
@<TRIPOS>BOND
     1     1     9 1   
     2     1    14 1   
     3     1    20 1   
     4     1    21 1   
     5     2    13 1   
     6     2    19 1   
     7     2    22 1   
     8     2    23 1   
     9     3    16 1   
    10     3    24 1   
    11     3    25 1   
    12     3    26 1   
    13     4     5 ar  
    14     4    12 ar  
    15     4    16 1   
    16     5     6 ar  
    17     5    27 1   
    18     6     7 ar  
    19     6    28 1   
    20     7     8 1   
    21     7    11 ar  
    22     8     9 1   
    23     8    15 1   
    24     8    29 1   
    25     9    10 1   
    26     9    30 1   
    27    10    17 1   
    28    10    31 1   
    29    10    32 1   
    30    11    12 ar  
    31    11    17 1   
    32    12    33 1   
    33    13    14 1   
    34    13    18 2   
    35    14    15 1   
    36    15    19 1   
    37    19    34 1   
    38    19    35 1   
@<TRIPOS>SUBSTRUCTURE
     1 JP7         1 TEMP              0 ****  ****    0 ROOT
