@<TRIPOS>MOLECULE
JP8
   35    36     1     0     0
SMALL
abcg2


@<TRIPOS>ATOM
      1 C4           4.4180     1.1690     0.5200 c6         1 JP8      -0.164400
      2 C5           4.8810    -0.2230     0.1960 c          1 JP8       0.577000
      3 C6          -0.2850     0.5440    -0.6090 c          1 JP8       0.649100
      4 C11         -5.3670    -0.7450     1.2760 c5         1 JP8       0.129800
      5 C7          -2.6280     0.4140    -0.8570 c3         1 JP8       0.187600
      6 C8          -3.8560     0.4330     0.0190 c5         1 JP8       0.135500
      7 C9          -5.1560     0.4740    -0.8120 c5         1 JP8      -0.111400
      8 C10         -6.1690    -0.3220     0.0310 c5         1 JP8      -0.113400
      9 N1           3.8990    -1.1240    -0.1640 ns         1 JP8      -0.482500
     10 N2           0.7030     0.5810     0.3130 ns         1 JP8      -0.484900
     11 C3           2.9670     1.2340     0.9640 c6         1 JP8      -0.083400
     12 N3          -3.9590    -0.7290     0.8950 n7         1 JP8      -0.811400
     13 C1           2.5440    -0.9050    -0.2640 c          1 JP8       0.547000
     14 C2           2.0850     0.5320    -0.0570 c6         1 JP8       0.046700
     15 O1           1.7860    -1.8110    -0.5180 o          1 JP8      -0.498000
     16 O2           6.0400    -0.5680     0.2240 o          1 JP8      -0.512000
     17 O3          -1.4740     0.4410    -0.0170 os         1 JP8      -0.442100
     18 O4          -0.1220     0.6250    -1.8080 o          1 JP8      -0.536000
     19 H1           5.0840     1.5790     1.2790 hc         1 JP8       0.084200
     20 H2           4.5620     1.7740    -0.3810 hc         1 JP8       0.084200
     21 H4          -5.6500    -1.7240     1.6630 h1         1 JP8       0.056200
     22 H5          -2.6210    -0.4880    -1.4790 h1         1 JP8       0.053200
     23 H6          -2.6390     1.2810    -1.5220 h1         1 JP8       0.053200
     24 H7          -3.8200     1.3260     0.6550 h1         1 JP8       0.076700
     25 H8          -5.4760     1.4980    -1.0040 hc         1 JP8       0.050200
     26 H9          -5.0040    -0.0000    -1.7850 hc         1 JP8       0.050200
     27 H10         -6.5190    -1.2000    -0.5150 hc         1 JP8       0.049200
     28 H11         -7.0500     0.2640     0.2930 hc         1 JP8       0.049200
     29 H12          4.2130    -2.0680    -0.3620 hn         1 JP8       0.331500
     30 H13          0.4680     0.3850     1.2740 hn         1 JP8       0.332500
     31 H14          2.8500     0.7680     1.9470 hc         1 JP8       0.065700
     32 H15          2.6550     2.2730     1.0580 hc         1 JP8       0.065700
     33 H16         -3.7720    -1.5620     0.3450 hn         1 JP8       0.401000
     34 H18          2.2050     1.0370    -1.0210 h1         1 JP8       0.106700
     35 H3          -5.5170    -0.0200     2.0810 h1         1 JP8       0.056200
@<TRIPOS>BOND
     1     1     2 1   
     2     1    11 1   
     3     1    19 1   
     4     1    20 1   
     5     2     9 1   
     6     2    16 2   
     7     3    10 1   
     8     3    17 1   
     9     3    18 2   
    10     4     8 1   
    11     4    12 1   
    12     4    21 1   
    13     4    35 1   
    14     5     6 1   
    15     5    17 1   
    16     5    22 1   
    17     5    23 1   
    18     6     7 1   
    19     6    12 1   
    20     6    24 1   
    21     7     8 1   
    22     7    25 1   
    23     7    26 1   
    24     8    27 1   
    25     8    28 1   
    26     9    13 1   
    27     9    29 1   
    28    10    14 1   
    29    10    30 1   
    30    11    14 1   
    31    11    31 1   
    32    11    32 1   
    33    12    33 1   
    34    13    14 1   
    35    13    15 2   
    36    14    34 1   
@<TRIPOS>SUBSTRUCTURE
     1 JP8         1 TEMP              0 ****  ****    0 ROOT
