@<TRIPOS>MOLECULE
JP8
   35    36     1     0     0
SMALL
No Charge or Current Charge


@<TRIPOS>ATOM
      1 C4           4.4900     1.1440     0.7780 c6         1 JP8      -0.164400
      2 C5           4.9590    -0.2570     0.3720 c          1 JP8       0.577000
      3 C6          -0.2790     0.5220    -0.8020 c          1 JP8       0.649100
      4 C11         -5.3740    -0.7980     1.3670 c5         1 JP8       0.129800
      5 C7          -2.6630     0.3840    -0.9940 c3         1 JP8       0.187600
      6 C8          -3.9160     0.3380    -0.0710 c5         1 JP8       0.135500
      7 C9          -5.2550     0.2580    -0.8390 c5         1 JP8      -0.111400
      8 C10         -6.2510    -0.0590     0.3120 c5         1 JP8      -0.113400
      9 N1           4.0340    -1.0700    -0.2190 ns         1 JP8      -0.482500
     10 N2           0.7100     0.6090     0.1380 ns         1 JP8      -0.484900
     11 C3           2.9640     1.2370     1.0270 c6         1 JP8      -0.083400
     12 N3          -4.0170    -0.8790     0.7740 n7         1 JP8      -0.811400
     13 C1           2.7260    -0.8090    -0.5270 c          1 JP8       0.547000
     14 C2           2.1660     0.5960    -0.1350 c6         1 JP8       0.046700
     15 O1           2.0640    -1.6460    -1.1210 o          1 JP8      -0.498000
     16 O2           6.0850    -0.6580     0.6100 o          1 JP8      -0.512000
     17 O3          -1.4830     0.4770    -0.1720 os         1 JP8      -0.442100
     18 O4          -0.1000     0.5050    -2.0100 o          1 JP8      -0.536000
     19 H1           5.0920     1.5130     1.6190 hc         1 JP8       0.084200
     20 H2           4.7170     1.7910    -0.0800 hc         1 JP8       0.084200
     21 H4          -5.7660    -1.7960     1.6080 h1         1 JP8       0.056200
     22 H5          -2.6360    -0.5200    -1.6170 h1         1 JP8       0.053200
     23 H6          -2.7420     1.2560    -1.6560 h1         1 JP8       0.053200
     24 H7          -3.8960     1.2410     0.5590 h1         1 JP8       0.076700
     25 H8          -5.4990     1.1910    -1.3590 hc         1 JP8       0.050200
     26 H9          -5.2430    -0.5430    -1.5890 hc         1 JP8       0.050200
     27 H10         -7.0910    -0.6730    -0.0320 hc         1 JP8       0.049200
     28 H11         -6.6750     0.8580     0.7370 hc         1 JP8       0.049200
     29 H12          4.3670    -1.9870    -0.4760 hn         1 JP8       0.331500
     30 H13          0.3900     0.6150     1.0990 hn         1 JP8       0.332500
     31 H14          2.7220     0.7190     1.9670 hc         1 JP8       0.065700
     32 H15          2.6650     2.2860     1.1620 hc         1 JP8       0.065700
     33 H16         -3.9840    -1.6950     0.1530 hn         1 JP8       0.401000
     34 H18          2.3410     1.2130    -1.0290 h1         1 JP8       0.106700
     35 H3          -5.3470    -0.2210     2.3030 h1         1 JP8       0.056200
@<TRIPOS>BOND
     1     1     2 1   
     2     1    11 1   
     3     1    19 1   
     4     1    20 1   
     5     2     9 1   
     6     2    16 2   
     7     3    10 1   
     8     3    17 1   
     9     3    18 2   
    10     4     8 1   
    11     4    12 1   
    12     4    21 1   
    13     4    35 1   
    14     5     6 1   
    15     5    17 1   
    16     5    22 1   
    17     5    23 1   
    18     6     7 1   
    19     6    12 1   
    20     6    24 1   
    21     7     8 1   
    22     7    25 1   
    23     7    26 1   
    24     8    27 1   
    25     8    28 1   
    26     9    13 1   
    27     9    29 1   
    28    10    14 1   
    29    10    30 1   
    30    11    14 1   
    31    11    31 1   
    32    11    32 1   
    33    12    33 1   
    34    13    14 1   
    35    13    15 2   
    36    14    34 1   
@<TRIPOS>SUBSTRUCTURE
     1 JP8         1 TEMP              0 ****  ****    0 ROOT
