@<TRIPOS>MOLECULE
JPA
   37    39     1     0     0
SMALL
bcc


@<TRIPOS>ATOM
      1 CLL2        -5.6940    -2.2210    -0.8480 cl         1 JPA      -0.105400
      2 C4          -4.3730    -1.1770    -0.4450 ca         1 JPA      -0.002600
      3 C3          -4.6250     0.1580    -0.1720 ca         1 JPA      -0.085000
      4 C5          -3.0850    -1.6810    -0.3960 ca         1 JPA      -0.086000
      5 C6          -2.0320    -0.8400    -0.0710 ca         1 JPA      -0.187000
      6 C1          -2.2590     0.5030     0.2020 ca         1 JPA       0.156100
      7 C2          -3.5650     0.9880     0.1470 ca         1 JPA      -0.001600
      8 CLL1        -3.8570     2.6530     0.4880 cl         1 JPA      -0.080400
      9 O1          -1.2940     1.3850     0.5450 os         1 JPA      -0.216200
     10 C9           0.0210     1.0070     0.4340 ca         1 JPA       0.049100
     11 C8           0.6190     0.9700    -0.8270 ca         1 JPA       0.130100
     12 O2          -0.1530     1.2560    -1.8870 oh         1 JPA      -0.474100
     13 C7           1.9640     0.6320    -0.9200 ca         1 JPA      -0.212000
     14 C12          2.7120     0.3370     0.2180 cp         1 JPA       0.015000
     15 C11          2.0970     0.3880     1.4660 ca         1 JPA      -0.148000
     16 C10          0.7540     0.7190     1.5690 ca         1 JPA      -0.093000
     17 C17          4.1530     0.0170     0.0820 cp         1 JPA      -0.049000
     18 C18          4.6880    -1.1980     0.5380 ca         1 JPA      -0.055300
     19 C23          3.8340    -2.2640     1.1640 c3         1 JPA      -0.048800
     20 C19          6.0540    -1.4220     0.3760 ca         1 JPA      -0.132000
     21 C20          6.8830    -0.4820    -0.2200 ca         1 JPA      -0.118000
     22 C21          6.3470     0.7120    -0.6790 ca         1 JPA      -0.133000
     23 C22          4.9890     0.9510    -0.5280 ca         1 JPA      -0.112000
     24 H3          -5.6300     0.5540    -0.2080 ha         1 JPA       0.162000
     25 H5          -2.8920    -2.7240    -0.6060 ha         1 JPA       0.148000
     26 H6          -1.0310    -1.2480    -0.0270 ha         1 JPA       0.148000
     27 HO2          0.3560     1.1860    -2.7030 ho         1 JPA       0.430000
     28 H7           2.4330     0.5900    -1.8970 ha         1 JPA       0.140000
     29 H11          2.6640     0.1840     2.3650 ha         1 JPA       0.144000
     30 H10          0.2730     0.7670     2.5380 ha         1 JPA       0.152000
     31 H231         3.5360    -2.0050     2.1800 hc         1 JPA       0.044367
     32 H232         2.9180    -2.4370     0.5980 hc         1 JPA       0.044367
     33 H233         4.3780    -3.2070     1.2180 hc         1 JPA       0.044367
     34 H19          6.4740    -2.3590     0.7210 ha         1 JPA       0.131000
     35 H20          7.9400    -0.6860    -0.3300 ha         1 JPA       0.133000
     36 H21          6.9780     1.4550    -1.1490 ha         1 JPA       0.134000
     37 H22          4.5690     1.8860    -0.8790 ha         1 JPA       0.134000
@<TRIPOS>BOND
     1     1     2 1   
     2     2     3 ar  
     3     2     4 ar  
     4     3     7 ar  
     5     3    24 1   
     6     4     5 ar  
     7     4    25 1   
     8     5     6 ar  
     9     5    26 1   
    10     6     7 ar  
    11     6     9 1   
    12     7     8 1   
    13     9    10 1   
    14    10    11 ar  
    15    10    16 ar  
    16    11    12 1   
    17    11    13 ar  
    18    12    27 1   
    19    13    14 ar  
    20    13    28 1   
    21    14    15 ar  
    22    14    17 1   
    23    15    16 ar  
    24    15    29 1   
    25    16    30 1   
    26    17    18 ar  
    27    17    23 ar  
    28    18    19 1   
    29    18    20 ar  
    30    19    31 1   
    31    19    32 1   
    32    19    33 1   
    33    20    21 ar  
    34    20    34 1   
    35    21    22 ar  
    36    21    35 1   
    37    22    23 ar  
    38    22    36 1   
    39    23    37 1   
@<TRIPOS>SUBSTRUCTURE
     1 JPA         1 TEMP              0 ****  ****    0 ROOT
