@<TRIPOS>MOLECULE
JPA
   37    39     1     0     0
SMALL
No Charge or Current Charge


@<TRIPOS>ATOM
      1 ClL2        -5.7970    -2.0710    -1.3440 cl         1 JPA      -0.197000
      2 C4          -4.4780    -1.1030    -0.6990 ca         1 JPA       0.089000
      3 C3          -4.6760     0.2620    -0.4360 ca         1 JPA      -0.067000
      4 C5          -3.2320    -1.7000    -0.4440 ca         1 JPA      -0.068000
      5 C6          -2.1750    -0.9270     0.0720 ca         1 JPA      -0.169000
      6 C1          -2.3650     0.4480     0.3290 ca         1 JPA       0.156100
      7 C2          -3.6230     1.0370     0.0800 ca         1 JPA       0.090000
      8 ClL1        -3.8960     2.7500     0.4040 cl         1 JPA      -0.172000
      9 O1          -1.3440     1.2200     0.8460 os         1 JPA      -0.216200
     10 C9          -0.0140     0.9320     0.6310 ca         1 JPA       0.049100
     11 C8           0.5370     0.9110    -0.6720 ca         1 JPA       0.130100
     12 O2          -0.2320     1.1890    -1.7700 oh         1 JPA      -0.513100
     13 C7           1.8990     0.6130    -0.8470 ca         1 JPA      -0.194000
     14 C12          2.7340     0.3300     0.2610 cp         1 JPA       0.015000
     15 C11          2.1680     0.3800     1.5570 ca         1 JPA      -0.130000
     16 C10          0.8070     0.6780     1.7420 ca         1 JPA      -0.075000
     17 C17          4.1830     0.0230     0.0580 cp         1 JPA      -0.049000
     18 C18          4.7920    -1.1630     0.5630 ca         1 JPA      -0.055300
     19 C23          3.9980    -2.2300     1.3120 c3         1 JPA      -0.048800
     20 C19          6.1680    -1.3880     0.3490 ca         1 JPA      -0.114000
     21 C20          6.9450    -0.4620    -0.3650 ca         1 JPA      -0.100000
     22 C21          6.3520     0.7000    -0.8780 ca         1 JPA      -0.115000
     23 C22          4.9850     0.9370    -0.6690 ca         1 JPA      -0.094000
     24 H3          -5.6420     0.7190    -0.6310 ha         1 JPA       0.144000
     25 H5          -3.0860    -2.7580    -0.6450 ha         1 JPA       0.130000
     26 H6          -1.2170    -1.4000     0.2730 ha         1 JPA       0.130000
     27 HO2          0.3340     1.1360    -2.5690 ho         1 JPA       0.469000
     28 H7           2.3260     0.5910    -1.8460 ha         1 JPA       0.122000
     29 H11          2.7950     0.1950     2.4260 ha         1 JPA       0.126000
     30 H10          0.3880     0.7100     2.7440 ha         1 JPA       0.134000
     31 H231         3.9100    -1.9800     2.3750 hc         1 JPA       0.044367
     32 H232         2.9870    -2.3410     0.9030 hc         1 JPA       0.044367
     33 H233         4.4800    -3.2120     1.2430 hc         1 JPA       0.044367
     34 H19          6.6390    -2.2900     0.7330 ha         1 JPA       0.113000
     35 H20          8.0050    -0.6490    -0.5250 ha         1 JPA       0.115000
     36 H21          6.9510     1.4180    -1.4350 ha         1 JPA       0.116000
     37 H22          4.5370     1.8460    -1.0650 ha         1 JPA       0.116000
@<TRIPOS>BOND
     1     1     2 1   
     2     2     3 ar  
     3     2     4 ar  
     4     3     7 ar  
     5     3    24 1   
     6     4     5 ar  
     7     4    25 1   
     8     5     6 ar  
     9     5    26 1   
    10     6     7 ar  
    11     6     9 1   
    12     7     8 1   
    13     9    10 1   
    14    10    11 ar  
    15    10    16 ar  
    16    11    12 1   
    17    11    13 ar  
    18    12    27 1   
    19    13    14 ar  
    20    13    28 1   
    21    14    15 ar  
    22    14    17 1   
    23    15    16 ar  
    24    15    29 1   
    25    16    30 1   
    26    17    18 ar  
    27    17    23 ar  
    28    18    19 1   
    29    18    20 ar  
    30    19    31 1   
    31    19    32 1   
    32    19    33 1   
    33    20    21 ar  
    34    20    34 1   
    35    21    22 ar  
    36    21    35 1   
    37    22    23 ar  
    38    22    36 1   
    39    23    37 1   
@<TRIPOS>SUBSTRUCTURE
     1 JPA         1 TEMP              0 ****  ****    0 ROOT
