@<TRIPOS>MOLECULE
JPB
   26    27     1     0     0
SMALL
abcg2


@<TRIPOS>ATOM
      1 C4          -2.7220     0.4350     0.2430 c5         1 JPB       0.023700
      2 C5          -0.3900     0.2760     0.9410 c          1 JPB       0.635700
      3 C6           1.0130     0.1290     0.4200 ca         1 JPB      -0.150600
      4 C11          1.5610    -1.1230     0.1770 ca         1 JPB       0.155500
      5 C7           1.8240     1.2400     0.2290 ca         1 JPB       0.155500
      6 C8           3.1370     1.1250    -0.1950 ca         1 JPB      -0.103500
      7 C9           3.6420    -0.1450    -0.4230 ca         1 JPB       0.143000
      8 C10          2.8700    -1.2810    -0.2450 ca         1 JPB      -0.103500
      9 N1          -4.6140    -0.7410    -0.4400 ns         1 JPB      -0.484500
     10 N2          -1.3190     0.3390    -0.0240 ns         1 JPB      -0.482900
     11 C3          -3.5060     1.2840    -0.7520 c5         1 JPB      -0.184400
     12 O1          -3.0030    -1.9590     0.6550 o          1 JPB      -0.475000
     13 C1          -3.4160    -0.9260     0.2000 c          1 JPB       0.545000
     14 C2          -4.7820     0.5120    -0.9850 c          1 JPB       0.573000
     15 O2          -5.7710     0.8850    -1.5600 o          1 JPB      -0.491000
     16 O3          -0.6130     0.3470     2.1330 o          1 JPB      -0.549100
     17 CL1          1.1740     2.8110     0.5150 cl         1 JPB      -0.158000
     18 CL2          5.2750    -0.3150    -0.9470 cl         1 JPB      -0.171000
     19 CL3          0.5810    -2.5250     0.4000 cl         1 JPB      -0.158000
     20 H1          -2.8580     0.8230     1.2550 h1         1 JPB       0.117700
     21 H2           3.7480     2.0030    -0.3420 ha         1 JPB       0.152500
     22 H3           3.2760    -2.2650    -0.4300 ha         1 JPB       0.152500
     23 H4          -5.3050    -1.4750    -0.5370 hn         1 JPB       0.345500
     24 H5          -1.0260     0.2220    -0.9830 hn         1 JPB       0.325500
     25 H6          -3.7160     2.2920    -0.3980 hc         1 JPB       0.092200
     26 H7          -2.9850     1.3720    -1.7100 hc         1 JPB       0.092200
@<TRIPOS>BOND
     1     1    10 1   
     2     1    11 1   
     3     1    13 1   
     4     1    20 1   
     5     2     3 1   
     6     2    10 1   
     7     2    16 2   
     8     3     4 ar  
     9     3     5 ar  
    10     4     8 ar  
    11     4    19 1   
    12     5     6 ar  
    13     5    17 1   
    14     6     7 ar  
    15     6    21 1   
    16     7     8 ar  
    17     7    18 1   
    18     8    22 1   
    19     9    13 1   
    20     9    14 1   
    21     9    23 1   
    22    10    24 1   
    23    11    14 1   
    24    11    25 1   
    25    11    26 1   
    26    12    13 2   
    27    14    15 2   
@<TRIPOS>SUBSTRUCTURE
     1 JPB         1 TEMP              0 ****  ****    0 ROOT
