@<TRIPOS>MOLECULE
JPB
   26    27     1     0     0
SMALL
No Charge or Current Charge


@<TRIPOS>ATOM
      1 C4          -2.7990    -0.0380     0.4190 c5         1 JPB       0.023700
      2 C5          -0.4280     0.5560     0.7380 c          1 JPB       0.635700
      3 C6           1.0000     0.3170     0.3390 ca         1 JPB      -0.150600
      4 C11          1.5450    -0.9910     0.2890 ca         1 JPB       0.155500
      5 C7           1.8360     1.4130     0.0180 ca         1 JPB       0.155500
      6 C8           3.1730     1.2050    -0.3540 ca         1 JPB      -0.103500
      7 C9           3.6970    -0.0930    -0.4050 ca         1 JPB       0.143000
      8 C10          2.8850    -1.1870    -0.0820 ca         1 JPB      -0.103500
      9 N1          -4.6650    -0.5660    -0.7750 ns         1 JPB      -0.484500
     10 N2          -1.3700    -0.2040     0.0670 ns         1 JPB      -0.482900
     11 C3          -3.3280     1.2250    -0.3430 c5         1 JPB      -0.184400
     12 O1          -3.4110    -2.4050    -0.2170 o          1 JPB      -0.475000
     13 C1          -3.6080    -1.2000    -0.2120 c          1 JPB       0.545000
     14 C2          -4.7190     0.7880    -0.8200 c          1 JPB       0.573000
     15 O2          -5.7370     1.4370    -0.9930 o          1 JPB      -0.491000
     16 O3          -0.7340     1.3430     1.6230 o          1 JPB      -0.549100
     17 Cl1          1.2320     3.0710     0.0030 cl         1 JPB      -0.158000
     18 Cl2          5.3740    -0.3470    -0.8690 cl         1 JPB      -0.171000
     19 Cl3          0.6160    -2.4180     0.7520 cl         1 JPB      -0.158000
     20 H1          -3.0120    -0.0140     1.4970 h1         1 JPB       0.117700
     21 H2           3.8040     2.0520    -0.6100 ha         1 JPB       0.152500
     22 H3           3.2980    -2.1920    -0.1100 ha         1 JPB       0.152500
     23 H4          -5.4440    -1.1070    -1.1200 hn         1 JPB       0.345500
     24 H5          -1.0260    -0.8600    -0.6250 hn         1 JPB       0.325500
     25 H6          -3.3690     2.1550     0.2340 hc         1 JPB       0.092200
     26 H7          -2.7340     1.3980    -1.2470 hc         1 JPB       0.092200
@<TRIPOS>BOND
     1     1    10 1   
     2     1    11 1   
     3     1    13 1   
     4     1    20 1   
     5     2     3 1   
     6     2    10 1   
     7     2    16 2   
     8     3     4 ar  
     9     3     5 ar  
    10     4     8 ar  
    11     4    19 1   
    12     5     6 ar  
    13     5    17 1   
    14     6     7 ar  
    15     6    21 1   
    16     7     8 ar  
    17     7    18 1   
    18     8    22 1   
    19     9    13 1   
    20     9    14 1   
    21     9    23 1   
    22    10    24 1   
    23    11    14 1   
    24    11    25 1   
    25    11    26 1   
    26    12    13 2   
    27    14    15 2   
@<TRIPOS>SUBSTRUCTURE
     1 JPB         1 TEMP              0 ****  ****    0 ROOT
