@<TRIPOS>MOLECULE
JPC
   44    46     1     0     0
SMALL
abcg2


@<TRIPOS>ATOM
      1 N1          -1.9820    -0.3980    -0.4540 n          1 JPC      -0.283000
      2 C2          -3.4250    -0.4520    -0.1450 c3         1 JPC       0.130700
      3 C3          -4.1990     0.6630    -0.8370 c3         1 JPC      -0.100600
      4 C4          -4.0370    -1.8290    -0.3680 c3         1 JPC      -0.100600
      5 C5          -1.5180    -0.7050    -1.6920 c          1 JPC       0.664700
      6 O6          -2.2470    -1.0120    -2.6170 o          1 JPC      -0.603100
      7 C7          -0.0290    -0.8010    -1.8540 ca         1 JPC      -0.091600
      8 C8           0.7220    -1.5140    -0.9220 ca         1 JPC      -0.069000
      9 C9           2.0830    -1.7140    -1.0680 ca         1 JPC      -0.126000
     10 C10          2.7130    -1.1830    -2.1810 ca         1 JPC       0.134000
     11 C11          1.9990    -0.4920    -3.1450 ca         1 JPC      -0.121000
     12 C12          0.6300    -0.3250    -2.9850 ca         1 JPC       0.195000
     13 CL13         4.4170    -1.3930    -2.3850 cl         1 JPC      -0.229000
     14 CL14        -0.1960     0.4960    -4.2560 cl         1 JPC      -0.150000
     15 C15         -1.1710     0.2280     0.5150 cc         1 JPC      -0.029400
     16 C16         -0.5000     1.4090     0.3510 cd         1 JPC      -0.222600
     17 S17          0.4040     1.7920     1.7590 ss         1 JPC       0.280000
     18 C18         -0.1370     0.3800     2.5930 cd         1 JPC      -0.249000
     19 C19         -0.9740    -0.3520     1.7990 cc         1 JPC      -0.128000
     20 C20         -0.4490     2.3950    -0.7830 c          1 JPC       0.728600
     21 O21          0.2990     3.3730    -0.5840 o          1 JPC      -0.694500
     22 O22         -1.1520     2.1530    -1.7750 o          1 JPC      -0.694500
     23 C23          0.3060     0.0780     3.9530 ca         1 JPC       0.037000
     24 C24         -0.4680    -0.7390     4.7820 ca         1 JPC      -0.114000
     25 C25         -0.0510    -1.0390     6.0680 ca         1 JPC      -0.112500
     26 C26          1.1420    -0.5230     6.5590 ca         1 JPC      -0.134000
     27 C27          1.9170     0.2930     5.7460 ca         1 JPC      -0.112500
     28 C28          1.5060     0.5870     4.4550 ca         1 JPC      -0.114000
     29 H2          -3.4730    -0.2610     0.9290 h1         1 JPC       0.040700
     30 H31         -3.7500     1.6330    -0.6300 hc         1 JPC       0.040367
     31 H32         -4.2270     0.5220    -1.9160 hc         1 JPC       0.040367
     32 H33         -5.2260     0.6780    -0.4690 hc         1 JPC       0.040367
     33 H41         -3.4360    -2.6070     0.1050 hc         1 JPC       0.040367
     34 H42         -5.0250    -1.8520     0.0950 hc         1 JPC       0.040367
     35 H43         -4.1540    -2.0700    -1.4210 hc         1 JPC       0.040367
     36 H8           0.2340    -1.9350    -0.0540 ha         1 JPC       0.125000
     37 H9           2.6370    -2.2720    -0.3270 ha         1 JPC       0.121000
     38 H11          2.4970    -0.0950    -4.0180 ha         1 JPC       0.134000
     39 H19         -1.4090    -1.2990     2.0910 ha         1 JPC       0.115000
     40 H24         -1.4130    -1.1300     4.4250 ha         1 JPC       0.117000
     41 H25         -0.6650    -1.6740     6.6940 ha         1 JPC       0.101000
     42 H26          1.4630    -0.7540     7.5660 ha         1 JPC       0.099000
     43 H27          2.8510     0.7000     6.1130 ha         1 JPC       0.101000
     44 H28          2.1380     1.2080     3.8300 ha         1 JPC       0.117000
@<TRIPOS>BOND
     1     1     2 1   
     2     1     5 1   
     3     1    15 1   
     4     2     3 1   
     5     2     4 1   
     6     2    29 1   
     7     3    30 1   
     8     3    31 1   
     9     3    32 1   
    10     4    33 1   
    11     4    34 1   
    12     4    35 1   
    13     5     6 2   
    14     5     7 1   
    15     7     8 ar  
    16     7    12 ar  
    17     8     9 ar  
    18     8    36 1   
    19     9    10 ar  
    20     9    37 1   
    21    10    11 ar  
    22    10    13 1   
    23    11    12 ar  
    24    11    38 1   
    25    12    14 1   
    26    15    16 2   
    27    15    19 1   
    28    16    17 1   
    29    16    20 1   
    30    17    18 1   
    31    18    19 2   
    32    18    23 1   
    33    19    39 1   
    34    20    21 1   
    35    20    22 1   
    36    23    24 ar  
    37    23    28 ar  
    38    24    25 ar  
    39    24    40 1   
    40    25    26 ar  
    41    25    41 1   
    42    26    27 ar  
    43    26    42 1   
    44    27    28 ar  
    45    27    43 1   
    46    28    44 1   
@<TRIPOS>SUBSTRUCTURE
     1 JPC         1 TEMP              0 ****  ****    0 ROOT
