@<TRIPOS>MOLECULE
JPC
   44    46     1     0     0
SMALL
No Charge or Current Charge


@<TRIPOS>ATOM
      1 N1          -1.9260    -0.2520    -0.4270 n          1 JPC      -0.283000
      2 C2          -3.3640    -0.3630    -0.0440 c3         1 JPC       0.130700
      3 C3          -4.2900     0.6410    -0.7670 c3         1 JPC      -0.100600
      4 C4          -3.8940    -1.8140    -0.0100 c3         1 JPC      -0.100600
      5 C5          -1.5200    -0.6350    -1.7450 c          1 JPC       0.664700
      6 O6          -2.3390    -0.9440    -2.6060 o          1 JPC      -0.603100
      7 C7          -0.0370    -0.8170    -2.0120 ca         1 JPC      -0.091600
      8 C8           0.7900    -1.4490    -1.0510 ca         1 JPC      -0.069000
      9 C9           2.1610    -1.6350    -1.2920 ca         1 JPC      -0.126000
     10 C10          2.7230    -1.2080    -2.5020 ca         1 JPC       0.134000
     11 C11          1.9150    -0.6060    -3.4750 ca         1 JPC      -0.121000
     12 C12          0.5420    -0.4160    -3.2420 ca         1 JPC       0.195000
     13 Cl13         4.4390    -1.4410    -2.8050 cl         1 JPC      -0.229000
     14 Cl14        -0.3890     0.3690    -4.5210 cl         1 JPC      -0.150000
     15 C15         -1.0340     0.3410     0.4790 cc         1 JPC      -0.029400
     16 C16         -0.1800     1.4090     0.2830 cd         1 JPC      -0.222600
     17 S17          0.8300     1.6660     1.7140 ss         1 JPC       0.280000
     18 C18         -0.0430     0.3940     2.6030 cd         1 JPC      -0.249000
     19 C19         -0.9640    -0.2140     1.7850 cc         1 JPC      -0.128000
     20 C20         -0.1290     2.3450    -0.8710 c          1 JPC       0.728600
     21 O21          0.7160     3.2260    -0.8520 o          1 JPC      -0.694500
     22 O22         -0.9450     2.2400    -1.7730 o          1 JPC      -0.694500
     23 C23          0.2670     0.0570     4.0120 ca         1 JPC       0.037000
     24 C24         -0.4120    -0.9920     4.6730 ca         1 JPC      -0.114000
     25 C25         -0.1170    -1.3120     6.0100 ca         1 JPC      -0.112500
     26 C26          0.8600    -0.5880     6.7080 ca         1 JPC      -0.134000
     27 C27          1.5420     0.4570     6.0680 ca         1 JPC      -0.112500
     28 C28          1.2490     0.7770     4.7310 ca         1 JPC      -0.114000
     29 H2          -3.4160    -0.0390     1.0030 h1         1 JPC       0.040700
     30 H31         -3.8810     1.6560    -0.6990 hc         1 JPC       0.040367
     31 H32         -4.4140     0.3880    -1.8260 hc         1 JPC       0.040367
     32 H33         -5.2840     0.6440    -0.3040 hc         1 JPC       0.040367
     33 H41         -3.2240    -2.4540     0.5760 hc         1 JPC       0.040367
     34 H42         -4.8870    -1.8460     0.4540 hc         1 JPC       0.040367
     35 H43         -3.9800    -2.2350    -1.0180 hc         1 JPC       0.040367
     36 H8           0.3700    -1.8140    -0.1160 ha         1 JPC       0.125000
     37 H9           2.7850    -2.1160    -0.5430 ha         1 JPC       0.121000
     38 H11          2.3530    -0.2830    -4.4140 ha         1 JPC       0.134000
     39 H19         -1.5860    -1.0520     2.0800 ha         1 JPC       0.115000
     40 H24         -1.1730    -1.5700     4.1590 ha         1 JPC       0.117000
     41 H25         -0.6490    -2.1230     6.5030 ha         1 JPC       0.101000
     42 H26          1.0870    -0.8360     7.7430 ha         1 JPC       0.099000
     43 H27          2.3000     1.0210     6.6070 ha         1 JPC       0.101000
     44 H28          1.7940     1.5930     4.2660 ha         1 JPC       0.117000
@<TRIPOS>BOND
     1     1     2 1   
     2     1     5 1   
     3     1    15 1   
     4     2     3 1   
     5     2     4 1   
     6     2    29 1   
     7     3    30 1   
     8     3    31 1   
     9     3    32 1   
    10     4    33 1   
    11     4    34 1   
    12     4    35 1   
    13     5     6 2   
    14     5     7 1   
    15     7     8 ar  
    16     7    12 ar  
    17     8     9 ar  
    18     8    36 1   
    19     9    10 ar  
    20     9    37 1   
    21    10    11 ar  
    22    10    13 1   
    23    11    12 ar  
    24    11    38 1   
    25    12    14 1   
    26    15    16 2   
    27    15    19 1   
    28    16    17 1   
    29    16    20 1   
    30    17    18 1   
    31    18    19 2   
    32    18    23 1   
    33    19    39 1   
    34    20    21 1   
    35    20    22 1   
    36    23    24 ar  
    37    23    28 ar  
    38    24    25 ar  
    39    24    40 1   
    40    25    26 ar  
    41    25    41 1   
    42    26    27 ar  
    43    26    42 1   
    44    27    28 ar  
    45    27    43 1   
    46    28    44 1   
@<TRIPOS>SUBSTRUCTURE
     1 JPC         1 TEMP              0 ****  ****    0 ROOT
