@<TRIPOS>MOLECULE
JPD
   38    39     1     0     0
SMALL
No Charge or Current Charge


@<TRIPOS>ATOM
      1 C10          1.9090    -0.1230    -0.3400 c6         1 JPD       0.173000
      2 C13          0.9610    -2.5040    -0.2950 c6         1 JPD      -0.089400
      3 C17         -3.8940    -2.0690    -0.6270 c3         1 JPD       0.168900
      4 C03          0.2980     1.8490     0.3140 c3         1 JPD       0.173300
      5 O04          1.2400     2.7880    -0.2220 oh         1 JPD      -0.646000
      6 C05          0.4350     0.4570    -0.4260 c6         1 JPD       0.091700
      7 N06         -0.5220    -0.5970     0.0720 n          1 JPD      -0.386800
      8 C07          0.1430    -1.7300     0.7790 c6         1 JPD       0.111700
      9 C08          1.1450    -1.1820     1.8420 c6         1 JPD      -0.089400
     10 C09          2.2810    -0.3620     1.1540 c6         1 JPD      -0.108400
     11 O11          2.8670     0.7420    -0.9590 oh         1 JPD      -0.640000
     12 C12          1.9190    -1.5170    -1.0440 c6         1 JPD      -0.108400
     13 C14         -1.8480    -0.7500    -0.4900 c          1 JPD       0.633100
     14 O15         -2.2860     0.0410    -1.3120 o          1 JPD      -0.540000
     15 O16         -2.5810    -1.8750    -0.0720 os         1 JPD      -0.453100
     16 H132         1.5380    -3.3100     0.1800 hc         1 JPD       0.054200
     17 H131         0.2830    -2.9880    -1.0110 hc         1 JPD       0.054200
     18 H171        -4.3520    -2.9770    -0.2160 h1         1 JPD       0.047700
     19 H172        -4.5480    -1.2200    -0.3910 h1         1 JPD       0.047700
     20 H173        -3.8450    -2.1770    -1.7190 h1         1 JPD       0.047700
     21 H013        -2.2700     4.1780     1.0340 hc         1 JPD       0.032700
     22 H011        -0.9430     3.6770     2.1030 hc         1 JPD       0.032700
     23 H012        -0.5980     4.5980     0.6200 hc         1 JPD       0.032700
     24 H031         0.5240     1.6800     1.3750 h1         1 JPD       0.068700
     25 H041         1.9940     2.2310    -0.5470 ho         1 JPD       0.445000
     26 H051         0.2150     0.6360    -1.4880 h1         1 JPD       0.081700
     27 H071        -0.5920    -2.3900     1.2640 h1         1 JPD       0.084700
     28 H081         0.6050    -0.5520     2.5620 hc         1 JPD       0.054200
     29 H082         1.5770    -2.0110     2.4200 hc         1 JPD       0.054200
     30 H092         3.2290    -0.9140     1.2200 hc         1 JPD       0.052950
     31 H091         2.4480     0.5840     1.6860 hc         1 JPD       0.052950
     32 H111         3.6990     0.2260    -1.0450 ho         1 JPD       0.446000
     33 H121         1.5980    -1.4090    -2.0900 hc         1 JPD       0.052950
     34 H122         2.9350    -1.9350    -1.0730 hc         1 JPD       0.052950
     35 C02         -1.1110     2.4930     0.2700 c3         1 JPD      -0.107400
     36 H021        -1.8360     1.7910     0.6970 hc         1 JPD       0.051700
     37 C01         -1.2340     3.8180     1.0550 c3         1 JPD      -0.083100
     38 H022        -1.4040     2.6630    -0.7730 hc         1 JPD       0.051700
@<TRIPOS>BOND
     1     1     6 1   
     2     1    10 1   
     3     1    11 1   
     4     1    12 1   
     5     2     8 1   
     6     2    12 1   
     7     2    16 1   
     8     2    17 1   
     9     3    15 1   
    10     3    18 1   
    11     3    19 1   
    12     3    20 1   
    13     4     5 1   
    14     4     6 1   
    15     4    24 1   
    16     4    35 1   
    17     5    25 1   
    18     6     7 1   
    19     6    26 1   
    20     7     8 1   
    21     7    13 1   
    22     8     9 1   
    23     8    27 1   
    24     9    10 1   
    25     9    28 1   
    26     9    29 1   
    27    10    30 1   
    28    10    31 1   
    29    11    32 1   
    30    12    33 1   
    31    12    34 1   
    32    13    14 2   
    33    13    15 1   
    34    21    37 1   
    35    22    37 1   
    36    23    37 1   
    37    35    36 1   
    38    35    37 1   
    39    35    38 1   
@<TRIPOS>SUBSTRUCTURE
     1 JPD         1 TEMP              0 ****  ****    0 ROOT
