@<TRIPOS>MOLECULE
JPD
   38    39     1     0     0
SMALL
bcc


@<TRIPOS>ATOM
      1 C10          1.8450    -0.2140    -0.3580 c6         1 JPD       0.149800
      2 C13          0.8480    -2.5220    -0.0860 c6         1 JPD      -0.089400
      3 C17         -3.5990    -2.0220    -0.7940 c3         1 JPD       0.145700
      4 C03          0.3400     1.7920     0.3870 c3         1 JPD       0.150100
      5 O04          1.3150     2.7240    -0.0220 oh         1 JPD      -0.583800
      6 C05          0.4580     0.4710    -0.4060 c6         1 JPD       0.091700
      7 N06         -0.5040    -0.5250     0.0770 n          1 JPD      -0.453800
      8 C07          0.0920    -1.6080     0.8750 c6         1 JPD       0.111700
      9 C08          1.0860    -1.0140     1.8680 c6         1 JPD      -0.089400
     10 C09          2.2690    -0.3940     1.1010 c6         1 JPD      -0.108400
     11 O11          2.7470     0.5640    -1.1080 oh         1 JPD      -0.577800
     12 C12          1.6960    -1.6100    -0.9880 c6         1 JPD      -0.108400
     13 C14         -1.6550    -0.7120    -0.6170 c          1 JPD       0.749100
     14 O15         -2.0390    -0.0130    -1.5340 o          1 JPD      -0.589000
     15 O16         -2.3530    -1.7540    -0.1610 os         1 JPD      -0.429900
     16 H132         1.4720    -3.2160     0.4810 hc         1 JPD       0.054200
     17 H131         0.1590    -3.1270    -0.6770 hc         1 JPD       0.054200
     18 H171        -4.0120    -2.8850    -0.2790 h1         1 JPD       0.047700
     19 H172        -4.2900    -1.1850    -0.6960 h1         1 JPD       0.047700
     20 H173        -3.4740    -2.2620    -1.8490 h1         1 JPD       0.047700
     21 H013        -2.2000     4.0630     1.1080 hc         1 JPD       0.032700
     22 H011        -0.8940     3.5400     2.1650 hc         1 JPD       0.032700
     23 H012        -0.5360     4.4740     0.7150 hc         1 JPD       0.032700
     24 H031         0.5620     1.5930     1.4400 h1         1 JPD       0.068700
     25 H041         1.2210     2.8710    -0.9690 ho         1 JPD       0.406000
     26 H051         0.2370     0.6840    -1.4580 h1         1 JPD       0.081700
     27 H071        -0.6880    -2.1350     1.4180 h1         1 JPD       0.084700
     28 H081         0.5820    -0.2790     2.4980 hc         1 JPD       0.054200
     29 H082         1.4240    -1.8120     2.5300 hc         1 JPD       0.054200
     30 H092         3.1440    -1.0500     1.1410 hc         1 JPD       0.052950
     31 H091         2.5720     0.5580     1.5390 hc         1 JPD       0.052950
     32 H111         3.5750     0.0750    -1.1690 ho         1 JPD       0.407000
     33 H121         1.2460    -1.5070    -1.9790 hc         1 JPD       0.052950
     34 H122         2.6910    -2.0370    -1.1410 hc         1 JPD       0.052950
     35 C02         -1.0620     2.3960     0.3260 c3         1 JPD      -0.107400
     36 H021        -1.7780     1.6760     0.7260 hc         1 JPD       0.051700
     37 C01         -1.1750     3.6900     1.1210 c3         1 JPD      -0.083100
     38 H022        -1.3450     2.5700    -0.7170 hc         1 JPD       0.051700
@<TRIPOS>BOND
     1     1     6 1   
     2     1    10 1   
     3     1    11 1   
     4     1    12 1   
     5     2     8 1   
     6     2    12 1   
     7     2    16 1   
     8     2    17 1   
     9     3    15 1   
    10     3    18 1   
    11     3    19 1   
    12     3    20 1   
    13     4     5 1   
    14     4     6 1   
    15     4    24 1   
    16     4    35 1   
    17     5    25 1   
    18     6     7 1   
    19     6    26 1   
    20     7     8 1   
    21     7    13 1   
    22     8     9 1   
    23     8    27 1   
    24     9    10 1   
    25     9    28 1   
    26     9    29 1   
    27    10    30 1   
    28    10    31 1   
    29    11    32 1   
    30    12    33 1   
    31    12    34 1   
    32    13    14 2   
    33    13    15 1   
    34    21    37 1   
    35    22    37 1   
    36    23    37 1   
    37    35    36 1   
    38    35    37 1   
    39    35    38 1   
@<TRIPOS>SUBSTRUCTURE
     1 JPD         1 TEMP              0 ****  ****    0 ROOT
