@<TRIPOS>MOLECULE
JPE
   57    60     1     0     0
SMALL
No Charge or Current Charge


@<TRIPOS>ATOM
      1 N           -2.5460     2.1020     1.0000 n8         1 JPE      -1.007200
      2 C           -2.4680     2.1600    -0.5040 c3         1 JPE       0.087500
      3 O           -2.5720     4.6120    -0.3410 oh         1 JPE      -0.667000
      4 O3          -3.4050    -2.3750    -2.1490 o          1 JPE      -0.533000
      5 S           -2.1940    -1.5500    -2.1680 s6         1 JPE       1.437500
      6 O2          -1.5000    -1.2510    -3.4240 o          1 JPE      -0.533000
      7 N1          -2.5600    -0.1260    -1.3990 ns         1 JPE      -0.625300
      8 C2          -1.7560     0.9530    -1.2080 c          1 JPE       0.624100
      9 O1          -0.5930     0.9880    -1.5800 o          1 JPE      -0.508100
     10 C1          -1.8910     3.5210    -0.9890 c3         1 JPE       0.124600
     11 O4          -1.1100    -2.1640    -1.0980 os         1 JPE      -0.538700
     12 C3          -1.5910    -2.4790     0.2230 c3         1 JPE       0.183600
     13 C4          -0.4640    -3.2340     0.9880 c5         1 JPE       0.172300
     14 O5           0.6840    -2.3740     1.1980 os         1 JPE      -0.422000
     15 C7           0.5510    -1.6840     2.4670 c5         1 JPE       0.314300
     16 C6          -0.7030    -2.3230     3.1810 c5         1 JPE       0.082300
     17 O6          -0.5310    -2.5170     4.5980 oh         1 JPE      -0.689000
     18 C5          -0.8450    -3.6810     2.4340 c5         1 JPE       0.106300
     19 O7           0.0610    -4.6510     2.9790 oh         1 JPE      -0.698000
     20 N2           0.5200    -0.2320     2.2590 na         1 JPE      -0.285300
     21 C10         -0.1610     0.6830     3.0700 cc         1 JPE       0.424700
     22 N3           0.0680     1.9530     2.6850 nd         1 JPE      -0.559100
     23 C9           0.9440     1.8070     1.6060 ca         1 JPE      -0.098600
     24 C11          1.5640     2.7920     0.8130 ca         1 JPE       0.460900
     25 N4           1.3880     4.1230     1.0250 nv         1 JPE      -1.068900
     26 N5           2.3850     2.4570    -0.1910 nb         1 JPE      -0.309000
     27 C12          2.5980     1.1350    -0.4040 cp         1 JPE       0.262500
     28 N6           2.0550     0.1380     0.3360 nb         1 JPE      -0.219000
     29 C8           1.2230     0.4930     1.3330 ca         1 JPE       0.152500
     30 C13          3.4840     0.7460    -1.5530 cp         1 JPE      -0.198500
     31 C17          3.6900    -0.6180    -1.8950 ca         1 JPE       0.377900
     32 N7           4.4760    -1.0330    -2.9180 nb         1 JPE      -0.678000
     33 C16          5.0990    -0.0920    -3.6590 ca         1 JPE       0.347900
     34 C15          4.9640     1.2810    -3.4110 ca         1 JPE      -0.183000
     35 C14          4.1520     1.7120    -2.3520 ca         1 JPE      -0.031000
     36 H1          -1.5900     2.1090     1.3900 hn         1 JPE       0.426000
     37 H2          -2.9080     3.0150     1.3070 hn         1 JPE       0.426000
     38 H4          -3.5040     2.1330    -0.8690 h1         1 JPE       0.075700
     39 H5          -2.2050     5.4470    -0.7120 ho         1 JPE       0.456000
     40 H6          -3.5040    -0.1200    -1.0570 hn         1 JPE       0.346500
     41 H7          -0.8170     3.5600    -0.7660 h1         1 JPE       0.038700
     42 H8          -2.0060     3.5900    -2.0790 h1         1 JPE       0.038700
     43 H9          -1.8710    -1.5680     0.7670 h1         1 JPE       0.052200
     44 H10         -2.4690    -3.1370     0.1770 h1         1 JPE       0.052200
     45 H11         -0.1620    -4.0950     0.3770 h1         1 JPE       0.111700
     46 H12          1.4500    -1.8780     3.0670 h2         1 JPE       0.121700
     47 H13         -1.5920    -1.7040     2.9960 h1         1 JPE       0.049700
     48 H14         -1.4280    -2.5270     5.0140 ho         1 JPE       0.515000
     49 H15         -1.8770    -4.0580     2.4790 h1         1 JPE       0.051700
     50 H16          0.2190    -4.3420     3.9060 ho         1 JPE       0.526000
     51 H17         -0.7800     0.3760     3.9050 h5         1 JPE       0.076800
     52 H18          0.6430     4.4020     1.6580 hn         1 JPE       0.506500
     53 H19          1.6540     4.7760     0.2940 hn         1 JPE       0.506500
     54 H20          3.2080    -1.4170    -1.3310 h4         1 JPE       0.040100
     55 H21          5.7240    -0.4510    -4.4750 h4         1 JPE       0.016100
     56 H22          5.4860     1.9990    -4.0370 ha         1 JPE       0.123000
     57 H23          4.0470     2.7780    -2.1580 ha         1 JPE       0.138000
@<TRIPOS>BOND
     1     1     2 1   
     2     1    36 1   
     3     1    37 1   
     4     2     8 1   
     5     2    10 1   
     6     2    38 1   
     7     3    10 1   
     8     3    39 1   
     9     4     5 2   
    10     5     6 2   
    11     5     7 1   
    12     5    11 1   
    13     7     8 1   
    14     7    40 1   
    15     8     9 2   
    16    10    41 1   
    17    10    42 1   
    18    11    12 1   
    19    12    13 1   
    20    12    43 1   
    21    12    44 1   
    22    13    14 1   
    23    13    18 1   
    24    13    45 1   
    25    14    15 1   
    26    15    16 1   
    27    15    20 1   
    28    15    46 1   
    29    16    17 1   
    30    16    18 1   
    31    16    47 1   
    32    17    48 1   
    33    18    19 1   
    34    18    49 1   
    35    19    50 1   
    36    20    21 1   
    37    20    29 1   
    38    21    22 2   
    39    21    51 1   
    40    22    23 1   
    41    23    24 ar  
    42    23    29 ar  
    43    24    25 1   
    44    24    26 ar  
    45    25    52 1   
    46    25    53 1   
    47    26    27 ar  
    48    27    28 ar  
    49    27    30 1   
    50    28    29 ar  
    51    30    31 ar  
    52    30    35 ar  
    53    31    32 ar  
    54    31    54 1   
    55    32    33 ar  
    56    33    34 ar  
    57    33    55 1   
    58    34    35 ar  
    59    34    56 1   
    60    35    57 1   
@<TRIPOS>SUBSTRUCTURE
     1 JPE         1 TEMP              0 ****  ****    0 ROOT
