@<TRIPOS>MOLECULE
JPE
   57    60     1     0     0
SMALL
abcg2


@<TRIPOS>ATOM
      1 N           -2.9730     2.5290     1.2250 n8         1 JPE      -1.007200
      2 C           -4.1750     2.0620     0.5680 c3         1 JPE       0.087500
      3 O           -5.3960     4.0830     0.7250 oh         1 JPE      -0.667000
      4 O3          -5.3540    -2.4440    -0.8640 o          1 JPE      -0.533000
      5 S           -4.3960    -1.4800    -1.3420 s6         1 JPE       1.437500
      6 O2          -4.3840    -1.0540    -2.7130 o          1 JPE      -0.533000
      7 N1          -4.5590    -0.1730    -0.3240 ns         1 JPE      -0.625300
      8 C2          -3.7840     0.9640    -0.4040 c          1 JPE       0.624100
      9 O1          -2.8770     1.0680    -1.1920 o          1 JPE      -0.508100
     10 C1          -4.9620     3.1230    -0.2050 c3         1 JPE       0.124600
     11 O4          -2.9180    -1.9750    -1.0660 os         1 JPE      -0.538700
     12 C3          -2.5620    -2.4310     0.2520 c3         1 JPE       0.183600
     13 C4          -1.1070    -2.8460     0.1920 c5         1 JPE       0.172300
     14 O5          -0.3010    -1.7630    -0.2620 os         1 JPE      -0.422000
     15 C7           0.6180    -1.3910     0.7330 c5         1 JPE       0.314300
     16 C6           0.0150    -1.8930     2.0400 c5         1 JPE       0.082300
     17 O6           1.0050    -1.9970     3.0140 oh         1 JPE      -0.689000
     18 C5          -0.5880    -3.2240     1.5790 c5         1 JPE       0.106300
     19 O7           0.4040    -4.2030     1.4290 oh         1 JPE      -0.698000
     20 N2           0.8460     0.0240     0.6760 na         1 JPE      -0.285300
     21 C10         -0.0510     1.0370     0.8980 cc         1 JPE       0.424700
     22 N3           0.4550     2.2190     0.7110 nd         1 JPE      -0.559100
     23 C9           1.7540     1.9840     0.3410 ca         1 JPE      -0.098600
     24 C11          2.8270     2.8280     0.0010 ca         1 JPE       0.460900
     25 N4           2.7270     4.1570    -0.0060 nv         1 JPE      -1.068900
     26 N5           3.9890     2.2590    -0.3270 nb         1 JPE      -0.309000
     27 C12          4.1080     0.9310    -0.3230 cp         1 JPE       0.262500
     28 N6           3.1670     0.0500    -0.0160 nb         1 JPE      -0.219000
     29 C8           2.0180     0.6260     0.3060 ca         1 JPE       0.152500
     30 C13          5.4320     0.3900    -0.6980 cp         1 JPE      -0.198500
     31 C17          5.6680    -0.9850    -0.7120 ca         1 JPE       0.377900
     32 N7           6.8320    -1.5300    -1.0400 nb         1 JPE      -0.678000
     33 C16          7.8290    -0.7180    -1.3740 ca         1 JPE       0.347900
     34 C15          7.7070     0.6630    -1.3930 ca         1 JPE      -0.183000
     35 C14          6.4900     1.2250    -1.0490 ca         1 JPE      -0.031000
     36 H1          -2.3670     3.0030     0.5660 hn         1 JPE       0.426000
     37 H2          -3.2200     3.2100     1.9320 hn         1 JPE       0.426000
     38 H4          -4.8350     1.6480     1.3360 h1         1 JPE       0.075700
     39 H5          -5.8200     4.8000     0.2440 ho         1 JPE       0.456000
     40 H6          -5.2870    -0.2510     0.3770 hn         1 JPE       0.346500
     41 H7          -4.3090     3.5600    -0.9720 h1         1 JPE       0.038700
     42 H8          -5.8060     2.6510    -0.7270 h1         1 JPE       0.038700
     43 H9          -2.7200    -1.6290     0.9780 h1         1 JPE       0.052200
     44 H10         -3.1740    -3.2890     0.5360 h1         1 JPE       0.052200
     45 H11         -1.0050    -3.6870    -0.5000 h1         1 JPE       0.111700
     46 H12          1.5950    -1.8580     0.5680 h2         1 JPE       0.121700
     47 H13         -0.8010    -1.2290     2.3580 h1         1 JPE       0.049700
     48 H14          0.5890    -2.0300     3.8820 ho         1 JPE       0.515000
     49 H15         -1.3950    -3.5610     2.2420 h1         1 JPE       0.051700
     50 H16          0.9320    -4.2190     2.2360 ho         1 JPE       0.526000
     51 H17         -1.0730     0.8600     1.1980 h5         1 JPE       0.076800
     52 H18          1.8670     4.6150     0.2400 hn         1 JPE       0.506500
     53 H19          3.5170     4.7260    -0.2570 hn         1 JPE       0.506500
     54 H20          4.8720    -1.6690    -0.4450 h4         1 JPE       0.040100
     55 H21          8.7700    -1.1880    -1.6410 h4         1 JPE       0.016100
     56 H22          8.5490     1.2820    -1.6730 ha         1 JPE       0.123000
     57 H23          6.3560     2.2980    -1.0510 ha         1 JPE       0.138000
@<TRIPOS>BOND
     1     1     2 1   
     2     1    36 1   
     3     1    37 1   
     4     2     8 1   
     5     2    10 1   
     6     2    38 1   
     7     3    10 1   
     8     3    39 1   
     9     4     5 2   
    10     5     6 2   
    11     5     7 1   
    12     5    11 1   
    13     7     8 1   
    14     7    40 1   
    15     8     9 2   
    16    10    41 1   
    17    10    42 1   
    18    11    12 1   
    19    12    13 1   
    20    12    43 1   
    21    12    44 1   
    22    13    14 1   
    23    13    18 1   
    24    13    45 1   
    25    14    15 1   
    26    15    16 1   
    27    15    20 1   
    28    15    46 1   
    29    16    17 1   
    30    16    18 1   
    31    16    47 1   
    32    17    48 1   
    33    18    19 1   
    34    18    49 1   
    35    19    50 1   
    36    20    21 1   
    37    20    29 1   
    38    21    22 2   
    39    21    51 1   
    40    22    23 1   
    41    23    24 ar  
    42    23    29 ar  
    43    24    25 1   
    44    24    26 ar  
    45    25    52 1   
    46    25    53 1   
    47    26    27 ar  
    48    27    28 ar  
    49    27    30 1   
    50    28    29 ar  
    51    30    31 ar  
    52    30    35 ar  
    53    31    32 ar  
    54    31    54 1   
    55    32    33 ar  
    56    33    34 ar  
    57    33    55 1   
    58    34    35 ar  
    59    34    56 1   
    60    35    57 1   
@<TRIPOS>SUBSTRUCTURE
     1 JPE         1 TEMP              0 ****  ****    0 ROOT
