@<TRIPOS>MOLECULE
JPF
   50    54     1     0     0
SMALL
No Charge or Current Charge


@<TRIPOS>ATOM
      1 N1          95.1070    -9.7210    12.9010 nb         1 JPF      -0.268000
      2 N3          97.4010    -9.9200    12.2010 nb         1 JPF      -0.263000
      3 C4          95.2550    -8.3910    13.0640 ca         1 JPF       0.320300
      4 C5          96.5070    -7.7940    12.8100 ca         1 JPF      -0.079600
      5 C6          97.5360    -8.5960    12.3880 ca         1 JPF       0.149500
      6 C8          98.1850    -6.4660    12.5410 cc         1 JPF       0.399700
      7 C10         92.0120    -9.5320    13.6920 ca         1 JPF      -0.052000
      8 C13         90.5600   -10.1760    11.8500 ca         1 JPF      -0.085000
      9 C15         92.0380    -8.2540    11.6190 ca         1 JPF      -0.056000
     10 C17         91.0570    -9.1070    11.0850 ca         1 JPF      -0.124000
     11 C22         95.5840   -12.4090     9.8360 c6         1 JPF       0.184800
     12 C24         93.5480   -12.9530     7.7570 ca         1 JPF      -0.230000
     13 C26         94.6840   -12.4780    12.6240 c6         1 JPF       0.205800
     14 C28         92.6280   -13.3650     6.7820 ca         1 JPF      -0.038000
     15 C2          96.1750   -10.4270    12.4700 ca         1 JPF       0.411900
     16 N7          98.5920    -7.7580    12.2200 na         1 JPF      -0.424300
     17 N9          96.8910    -6.4530    12.9110 nd         1 JPF      -0.525100
     18 C11         91.0380   -10.3960    13.1560 ca         1 JPF      -0.090300
     19 C12         92.5170    -8.4670    12.9230 ca         1 JPF      -0.138000
     20 S16         93.8260    -7.4290    13.5750 ss         1 JPF      -0.089300
     21 N18         94.1990   -12.9100    10.1450 nh         1 JPF      -0.777300
     22 C19         93.3200   -13.2820     9.1080 ca         1 JPF       0.617900
     23 N20         92.2460   -13.9860     9.5090 nb         1 JPF      -0.750000
     24 N21         95.9810   -11.8160    12.2620 nh         1 JPF      -0.752300
     25 C23         93.6510   -12.4020    11.4540 c6         1 JPF       0.184800
     26 C25         96.5660   -12.4760    11.0530 c6         1 JPF       0.205800
     27 C27         91.3600   -14.3830     8.5710 ca         1 JPF       0.385900
     28 C29         91.5120   -14.0970     7.2060 ca         1 JPF      -0.221000
     29 H1          98.8490    -5.6110    12.4870 h5         1 JPF       0.066800
     30 H2          92.3940    -9.7000    14.6970 ha         1 JPF       0.124000
     31 H3          89.8060   -10.8360    11.4260 ha         1 JPF       0.112000
     32 H4          92.4320    -7.4380    11.0180 ha         1 JPF       0.125000
     33 H5          90.6880    -8.9440    10.0750 ha         1 JPF       0.116000
     34 H6          96.0270   -12.9970     9.0200 h1         1 JPF       0.056950
     35 H7          95.5290   -11.3650     9.4940 h1         1 JPF       0.056950
     36 H8          94.4160   -12.3760     7.4600 ha         1 JPF       0.120000
     37 H9          94.8630   -13.5380    12.8580 h1         1 JPF       0.075950
     38 H10         94.2430   -12.0430    13.5330 h1         1 JPF       0.075950
     39 H11         92.7760   -13.1230     5.7310 ha         1 JPF       0.113000
     40 H12         99.5190    -8.0210    11.9150 hn         1 JPF       0.367000
     41 H14         89.6460   -11.2590    14.5780 hc         1 JPF       0.043367
     42 H15         90.2030   -12.3970    13.3380 hc         1 JPF       0.043367
     43 H16         91.2780   -11.9440    14.6660 hc         1 JPF       0.043367
     44 H17         93.3340   -11.3550    11.3360 h1         1 JPF       0.056950
     45 H18         92.7620   -12.9690    11.7660 h1         1 JPF       0.056950
     46 H19         97.5290   -12.0300    10.7660 h1         1 JPF       0.075950
     47 H20         96.7770   -13.5330    11.2740 h1         1 JPF       0.075950
     48 H21         90.5000   -14.9500     8.9260 h4         1 JPF       0.013100
     49 H22         90.7680   -14.4410     6.4930 ha         1 JPF       0.124000
     50 C14         90.5130   -11.5630    13.9790 c3         1 JPF      -0.046800
@<TRIPOS>BOND
     1     1     3 ar  
     2     1    15 ar  
     3     2     5 ar  
     4     2    15 ar  
     5     3     4 ar  
     6     3    20 1   
     7     4     5 ar  
     8     4    17 1   
     9     5    16 1   
    10     6    16 1   
    11     6    17 2   
    12     6    29 1   
    13     7    18 ar  
    14     7    19 ar  
    15     7    30 1   
    16     8    10 ar  
    17     8    18 ar  
    18     8    31 1   
    19     9    10 ar  
    20     9    19 ar  
    21     9    32 1   
    22    10    33 1   
    23    11    21 1   
    24    11    26 1   
    25    11    34 1   
    26    11    35 1   
    27    12    14 ar  
    28    12    22 ar  
    29    12    36 1   
    30    13    24 1   
    31    13    25 1   
    32    13    37 1   
    33    13    38 1   
    34    14    28 ar  
    35    14    39 1   
    36    15    24 1   
    37    16    40 1   
    38    18    50 1   
    39    19    20 1   
    40    21    22 1   
    41    21    25 1   
    42    22    23 ar  
    43    23    27 ar  
    44    24    26 1   
    45    25    44 1   
    46    25    45 1   
    47    26    46 1   
    48    26    47 1   
    49    27    28 ar  
    50    27    48 1   
    51    28    49 1   
    52    41    50 1   
    53    42    50 1   
    54    43    50 1   
@<TRIPOS>SUBSTRUCTURE
     1 JPF         1 TEMP              0 ****  ****    0 ROOT
