@<TRIPOS>MOLECULE
JPF
   50    54     1     0     0
SMALL
abcg2


@<TRIPOS>ATOM
      1 N1          94.7290    -9.5830    12.5550 nb         1 JPF      -0.268000
      2 N3          96.9660    -9.9920    11.8400 nb         1 JPF      -0.263000
      3 C4          94.9890    -8.3370    12.8690 ca         1 JPF       0.320300
      4 C5          96.2720    -7.8270    12.6970 ca         1 JPF      -0.079600
      5 C6          97.1970    -8.7350    12.1740 ca         1 JPF       0.149500
      6 C8          98.0870    -6.7670    12.5440 cc         1 JPF       0.399700
      7 C10         92.0430    -9.1240    14.6460 ca         1 JPF      -0.052000
      8 C13         90.1880   -10.1300    13.5210 ca         1 JPF      -0.085000
      9 C15         91.5520    -8.5220    12.3600 ca         1 JPF      -0.056000
     10 C17         90.4770    -9.3970    12.3770 ca         1 JPF      -0.124000
     11 C22         95.7270   -12.5240     9.5350 c6         1 JPF       0.184800
     12 C24         94.5960   -13.7730     7.2070 ca         1 JPF      -0.230000
     13 C26         93.9800   -12.0850    11.7540 c6         1 JPF       0.205800
     14 C28         93.9930   -14.3560     6.1120 ca         1 JPF      -0.038000
     15 C2          95.7050   -10.3670    12.0600 ca         1 JPF       0.411900
     16 N7          98.3540    -8.0270    12.0860 na         1 JPF      -0.424300
     17 N9          96.8530    -6.6040    12.9180 nd         1 JPF      -0.525100
     18 C11         90.9610   -10.0010    14.6730 ca         1 JPF      -0.090300
     19 C12         92.3380    -8.3990    13.4990 ca         1 JPF      -0.138000
     20 S16         93.7230    -7.2930    13.4990 ss         1 JPF      -0.089300
     21 N18         94.3160   -12.8510     9.4510 nh         1 JPF      -0.777300
     22 C19         93.7910   -13.3820     8.2970 ca         1 JPF       0.617900
     23 N20         92.4670   -13.5350     8.2540 nb         1 JPF      -0.750000
     24 N21         95.3630   -11.6560    11.7950 nh         1 JPF      -0.752300
     25 C23         93.4570   -12.0690    10.3280 c6         1 JPF       0.184800
     26 C25         96.2000   -12.5110    10.9830 c6         1 JPF       0.205800
     27 C27         91.9090   -14.0950     7.1890 ca         1 JPF       0.385900
     28 C29         92.6140   -14.5370     6.0860 ca         1 JPF      -0.221000
     29 H1          98.8560    -6.0090    12.5760 h5         1 JPF       0.066800
     30 H2          92.6680    -9.0140    15.5240 ha         1 JPF       0.124000
     31 H3          89.3460   -10.8120    13.5170 ha         1 JPF       0.112000
     32 H4          91.7860    -7.9530    11.4700 ha         1 JPF       0.125000
     33 H5          89.8620    -9.5120    11.4940 ha         1 JPF       0.116000
     34 H6          96.3180   -13.2760     9.0140 h1         1 JPF       0.056950
     35 H7          95.9400   -11.5530     9.0680 h1         1 JPF       0.056950
     36 H8          95.6640   -13.6200     7.1970 ha         1 JPF       0.120000
     37 H9          93.9270   -13.1010    12.1530 h1         1 JPF       0.075950
     38 H10         93.3640   -11.4450    12.3790 h1         1 JPF       0.075950
     39 H11         94.6040   -14.6600     5.2720 ha         1 JPF       0.113000
     40 H12         99.2440    -8.3620    11.7500 hn         1 JPF       0.367000
     41 H14         89.9750   -10.1900    16.5720 hc         1 JPF       0.043367
     42 H15         90.1090   -11.7000    15.6840 hc         1 JPF       0.043367
     43 H16         91.5220   -11.0160    16.4880 hc         1 JPF       0.043367
     44 H17         93.3910   -11.0290     9.9760 h1         1 JPF       0.056950
     45 H18         92.4530   -12.4830    10.3090 h1         1 JPF       0.056950
     46 H19         97.2350   -12.1860    11.0280 h1         1 JPF       0.075950
     47 H20         96.1480   -13.5240    11.3890 h1         1 JPF       0.075950
     48 H21         90.8280   -14.1930     7.2210 h4         1 JPF       0.013100
     49 H22         92.1100   -14.9870     5.2440 ha         1 JPF       0.124000
     50 C14         90.6270   -10.7710    15.9170 c3         1 JPF      -0.046800
@<TRIPOS>BOND
     1     1     3 ar  
     2     1    15 ar  
     3     2     5 ar  
     4     2    15 ar  
     5     3     4 ar  
     6     3    20 1   
     7     4     5 ar  
     8     4    17 1   
     9     5    16 1   
    10     6    16 1   
    11     6    17 2   
    12     6    29 1   
    13     7    18 ar  
    14     7    19 ar  
    15     7    30 1   
    16     8    10 ar  
    17     8    18 ar  
    18     8    31 1   
    19     9    10 ar  
    20     9    19 ar  
    21     9    32 1   
    22    10    33 1   
    23    11    21 1   
    24    11    26 1   
    25    11    34 1   
    26    11    35 1   
    27    12    14 ar  
    28    12    22 ar  
    29    12    36 1   
    30    13    24 1   
    31    13    25 1   
    32    13    37 1   
    33    13    38 1   
    34    14    28 ar  
    35    14    39 1   
    36    15    24 1   
    37    16    40 1   
    38    18    50 1   
    39    19    20 1   
    40    21    22 1   
    41    21    25 1   
    42    22    23 ar  
    43    23    27 ar  
    44    24    26 1   
    45    25    44 1   
    46    25    45 1   
    47    26    46 1   
    48    26    47 1   
    49    27    28 ar  
    50    27    48 1   
    51    28    49 1   
    52    41    50 1   
    53    42    50 1   
    54    43    50 1   
@<TRIPOS>SUBSTRUCTURE
     1 JPF         1 TEMP              0 ****  ****    0 ROOT
