@<TRIPOS>MOLECULE
JPG
   28    29     1     0     0
SMALL
No Charge or Current Charge


@<TRIPOS>ATOM
      1 C13          3.1390     0.0580     1.3150 ca         1 JPG      -0.101000
      2 C15          3.9330     0.7700    -0.8750 ca         1 JPG      -0.101000
      3 C01         -3.4190     1.8350     0.5120 c3         1 JPG      -0.196100
      4 O03         -1.9000     1.9790    -1.3200 o          1 JPG      -0.503100
      5 C04         -1.9750    -0.1890    -0.2990 ca         1 JPG      -0.204600
      6 C05         -2.9140    -1.1390     0.1690 ca         1 JPG      -0.048000
      7 C06         -2.5560    -2.4900     0.3070 ca         1 JPG      -0.160000
      8 C07         -1.2610    -2.9170    -0.0190 ca         1 JPG      -0.049000
      9 C08         -0.3200    -1.9840    -0.4780 ca         1 JPG      -0.204000
     10 C09         -0.6650    -0.6250    -0.6100 ca         1 JPG       0.194100
     11 O10          0.2870     0.2710    -1.0430 os         1 JPG      -0.226200
     12 C11          1.5650     0.3100    -0.5310 ca         1 JPG       0.095100
     13 C12          1.8240    -0.0050     0.8190 ca         1 JPG      -0.117000
     14 C14          4.1930     0.4430     0.4670 ca         1 JPG      -0.112000
     15 C16          2.6190     0.7060    -1.3720 ca         1 JPG      -0.117000
     16 H131         3.3400    -0.1870     2.3560 ha         1 JPG       0.116500
     17 H151         4.7480     1.0720    -1.5290 ha         1 JPG       0.116500
     18 H011        -3.2540     1.4400     1.5210 hc         1 JPG       0.058700
     19 H012        -3.4470     2.9300     0.4900 hc         1 JPG       0.058700
     20 H013        -4.4010     1.4340     0.2370 hc         1 JPG       0.058700
     21 H051        -3.9310    -0.8430     0.4170 ha         1 JPG       0.115000
     22 H061        -3.2900    -3.2110     0.6630 ha         1 JPG       0.119000
     23 H071        -0.9890    -3.9650     0.0840 ha         1 JPG       0.115000
     24 H081         0.6840    -2.3160    -0.7310 ha         1 JPG       0.130000
     25 H121         1.0140    -0.2930     1.4840 ha         1 JPG       0.130000
     26 H141         5.2090     0.4930     0.8520 ha         1 JPG       0.116000
     27 H161         2.4160     0.9610    -2.4090 ha         1 JPG       0.130000
     28 C02         -2.3740     1.2620    -0.4480 c          1 JPG       0.584700
@<TRIPOS>BOND
     1     1    13 ar  
     2     1    14 ar  
     3     1    16 1   
     4     2    14 ar  
     5     2    15 ar  
     6     2    17 1   
     7     3    18 1   
     8     3    19 1   
     9     3    20 1   
    10     3    28 1   
    11     4    28 2   
    12     5     6 ar  
    13     5    10 ar  
    14     5    28 1   
    15     6     7 ar  
    16     6    21 1   
    17     7     8 ar  
    18     7    22 1   
    19     8     9 ar  
    20     8    23 1   
    21     9    10 ar  
    22     9    24 1   
    23    10    11 1   
    24    11    12 1   
    25    12    13 ar  
    26    12    15 ar  
    27    13    25 1   
    28    14    26 1   
    29    15    27 1   
@<TRIPOS>SUBSTRUCTURE
     1 JPG         1 TEMP              0 ****  ****    0 ROOT
