@<TRIPOS>MOLECULE
JPG
   28    29     1     0     0
SMALL
abcg2


@<TRIPOS>ATOM
      1 C13          3.5020     0.0790     1.2850 ca         1 JPG      -0.101000
      2 C15          3.8230     0.2930    -1.0870 ca         1 JPG      -0.101000
      3 C01         -3.9040     1.6130     0.2600 c3         1 JPG      -0.196100
      4 O03         -1.7870     2.3010    -0.5420 o          1 JPG      -0.503100
      5 C04         -1.9690    -0.0230    -0.1240 ca         1 JPG      -0.204600
      6 C05         -2.8740    -1.0810     0.0040 ca         1 JPG      -0.048000
      7 C06         -2.4650    -2.4020     0.0240 ca         1 JPG      -0.160000
      8 C07         -1.1110    -2.6880    -0.0800 ca         1 JPG      -0.049000
      9 C08         -0.1830    -1.6670    -0.1960 ca         1 JPG      -0.204000
     10 C09         -0.5990    -0.3380    -0.2180 ca         1 JPG       0.194100
     11 O10          0.2830     0.6790    -0.3290 os         1 JPG      -0.226200
     12 C11          1.6250     0.4450    -0.1540 ca         1 JPG       0.095100
     13 C12          2.1350     0.2540     1.1230 ca         1 JPG      -0.117000
     14 C14          4.3480     0.0970     0.1830 ca         1 JPG      -0.112000
     15 C16          2.4560     0.4640    -1.2630 ca         1 JPG      -0.117000
     16 H131         3.9060    -0.0700     2.2780 ha         1 JPG       0.116500
     17 H151         4.4780     0.3100    -1.9480 ha         1 JPG       0.116500
     18 H011        -4.1140     1.1650     1.2310 hc         1 JPG       0.058700
     19 H012        -4.0970     2.6820     0.3110 hc         1 JPG       0.058700
     20 H013        -4.6030     1.1750    -0.4560 hc         1 JPG       0.058700
     21 H051        -3.9310    -0.8710     0.0820 ha         1 JPG       0.115000
     22 H061        -3.1920    -3.1960     0.1170 ha         1 JPG       0.119000
     23 H071        -0.7680    -3.7140    -0.0710 ha         1 JPG       0.115000
     24 H081         0.8680    -1.9130    -0.2750 ha         1 JPG       0.130000
     25 H121         1.4720     0.2460     1.9780 ha         1 JPG       0.130000
     26 H141         5.4140    -0.0350     0.3160 ha         1 JPG       0.116000
     27 H161         2.0400     0.6180    -2.2510 ha         1 JPG       0.130000
     28 C02         -2.4770     1.3750    -0.1700 c          1 JPG       0.584700
@<TRIPOS>BOND
     1     1    13 ar  
     2     1    14 ar  
     3     1    16 1   
     4     2    14 ar  
     5     2    15 ar  
     6     2    17 1   
     7     3    18 1   
     8     3    19 1   
     9     3    20 1   
    10     3    28 1   
    11     4    28 2   
    12     5     6 ar  
    13     5    10 ar  
    14     5    28 1   
    15     6     7 ar  
    16     6    21 1   
    17     7     8 ar  
    18     7    22 1   
    19     8     9 ar  
    20     8    23 1   
    21     9    10 ar  
    22     9    24 1   
    23    10    11 1   
    24    11    12 1   
    25    12    13 ar  
    26    12    15 ar  
    27    13    25 1   
    28    14    26 1   
    29    15    27 1   
@<TRIPOS>SUBSTRUCTURE
     1 JPG         1 TEMP              0 ****  ****    0 ROOT
