@<TRIPOS>MOLECULE
JPH
   42    45     1     0     0
SMALL
No Charge or Current Charge


@<TRIPOS>ATOM
      1 N1           4.7590     1.3340     0.6210 nc         1 JPH      -0.710100
      2 N3           5.3500    -0.9090     0.6090 na         1 JPH      -0.762200
      3 C4           6.7200    -0.6980     0.5180 cc         1 JPH       0.138800
      4 C5           7.0300     0.6320     0.4830 cd         1 JPH      -0.364200
      5 C6           6.0590     1.7060     0.5330 c          1 JPH       0.706700
      6 CAU         -3.7860    -0.8760    -0.3860 ca         1 JPH      -0.078000
      7 CAT         -5.1050    -0.4730    -0.1190 ca         1 JPH       0.052100
      8 OAV         -6.1470    -1.3280    -0.4230 os         1 JPH      -0.327100
      9 CAW         -7.4400    -1.0290     0.1490 c6         1 JPH       0.117600
     10 CAX         -7.7170     0.4870     0.0580 c6         1 JPH       0.117600
     11 OAY         -6.6470     1.2210     0.6940 os         1 JPH      -0.329100
     12 CAS         -5.3550     0.7960     0.4540 ca         1 JPH       0.062100
     13 CAR         -4.2810     1.6320     0.7890 ca         1 JPH      -0.111000
     14 CAQ         -2.9600     1.2220     0.5310 ca         1 JPH      -0.103000
     15 CAP         -2.6950    -0.0310    -0.0730 ca         1 JPH      -0.109500
     16 CAM         -1.3190    -0.4830    -0.3390 cc         1 JPH       0.266500
     17 CAL         -0.2370     0.3340    -0.2310 cd         1 JPH      -0.201000
     18 NAN         -0.9640    -1.7390    -0.7360 nc         1 JPH      -0.353000
     19 NAO          0.3380    -1.7580    -0.8810 nd         1 JPH      -0.205800
     20 NAK          0.8040    -0.5000    -0.5780 na         1 JPH       0.116800
     21 CAJ          2.2360    -0.1690    -0.6330 c3         1 JPH       0.096600
     22 C2           4.3830     0.0810     0.6680 cd         1 JPH       0.663200
     23 CAA          7.6880    -1.8430     0.4680 c3         1 JPH      -0.070900
     24 O6           6.3800     2.8810     0.4960 o          1 JPH      -0.540100
     25 H1           8.0550     0.9700     0.4130 ha         1 JPH       0.215000
     26 H4          -8.2150    -1.5980    -0.3840 h1         1 JPH       0.067200
     27 H5          -7.4450    -1.3400     1.2030 h1         1 JPH       0.067200
     28 H6          -7.7770     0.7870    -0.9980 h1         1 JPH       0.067700
     29 H7          -8.6710     0.7390     0.5430 h1         1 JPH       0.067700
     30 H8          -4.4710     2.6010     1.2430 ha         1 JPH       0.127000
     31 H9          -2.1490     1.8910     0.8070 ha         1 JPH       0.112000
     32 H10         -0.1200     1.3740     0.0410 h4         1 JPH       0.170000
     33 H11          2.7270    -0.8560    -1.3340 h1         1 JPH       0.093700
     34 H12          2.3390     0.8460    -1.0360 h1         1 JPH       0.093700
     35 H15          7.4960    -2.4780    -0.4050 hc         1 JPH       0.061700
     36 H16          8.7220    -1.4850     0.4020 hc         1 JPH       0.061700
     37 H17          7.6050    -2.4650     1.3670 hc         1 JPH       0.061700
     38 H18          5.0060    -1.8640     0.6420 hn         1 JPH       0.507000
     39 CAI          2.9260    -0.2530     0.7460 c3         1 JPH      -0.143700
     40 H3          -3.6170    -1.8520    -0.8330 ha         1 JPH       0.149000
     41 H13          2.4290     0.4350     1.4410 hc         1 JPH       0.074700
     42 H14          2.7910    -1.2590     1.1600 hc         1 JPH       0.074700
@<TRIPOS>BOND
     1     1     5 1   
     2     1    22 2   
     3     2     3 1   
     4     2    22 1   
     5     2    38 1   
     6     3     4 2   
     7     3    23 1   
     8     4     5 1   
     9     4    25 1   
    10     5    24 2   
    11     6     7 ar  
    12     6    15 ar  
    13     6    40 1   
    14     7     8 1   
    15     7    12 ar  
    16     8     9 1   
    17     9    10 1   
    18     9    26 1   
    19     9    27 1   
    20    10    11 1   
    21    10    28 1   
    22    10    29 1   
    23    11    12 1   
    24    12    13 ar  
    25    13    14 ar  
    26    13    30 1   
    27    14    15 ar  
    28    14    31 1   
    29    15    16 1   
    30    16    17 2   
    31    16    18 1   
    32    17    20 1   
    33    17    32 1   
    34    18    19 2   
    35    19    20 1   
    36    20    21 1   
    37    21    33 1   
    38    21    34 1   
    39    21    39 1   
    40    22    39 1   
    41    23    35 1   
    42    23    36 1   
    43    23    37 1   
    44    39    41 1   
    45    39    42 1   
@<TRIPOS>SUBSTRUCTURE
     1 JPH         1 TEMP              0 ****  ****    0 ROOT
