@<TRIPOS>MOLECULE
JPH
   42    45     1     0     0
SMALL
abcg2


@<TRIPOS>ATOM
      1 N1           4.8930     0.9280    -0.4780 nc         1 JPH      -0.710100
      2 N3           5.1970    -1.0210     0.7460 na         1 JPH      -0.762200
      3 C4           6.5430    -0.8310     0.8730 cc         1 JPH       0.138800
      4 C5           7.0830     0.2700     0.3040 cd         1 JPH      -0.364200
      5 C6           6.2500     1.2070    -0.4170 c          1 JPH       0.706700
      6 CAU         -3.6920    -0.6510    -0.4840 ca         1 JPH      -0.078000
      7 CAT         -5.0090    -0.4680    -0.0930 ca         1 JPH       0.052100
      8 OAV         -5.9280    -1.3840    -0.4770 os         1 JPH      -0.327100
      9 CAW         -7.1470    -1.3240     0.2490 c6         1 JPH       0.117600
     10 CAX         -7.6060     0.1080     0.3790 c6         1 JPH       0.117600
     11 OAY         -6.6320     0.8750     1.0710 os         1 JPH      -0.329100
     12 CAS         -5.3580     0.6440     0.6810 ca         1 JPH       0.062100
     13 CAR         -4.3690     1.5420     1.0620 ca         1 JPH      -0.111000
     14 CAQ         -3.0550     1.3500     0.6750 ca         1 JPH      -0.103000
     15 CAP         -2.7010     0.2540    -0.1130 ca         1 JPH      -0.109500
     16 CAM         -1.3200     0.0470    -0.5380 cc         1 JPH       0.266500
     17 CAL         -0.1900     0.7820    -0.2570 cd         1 JPH      -0.201000
     18 NAN         -0.9430    -0.9800    -1.3350 nc         1 JPH      -0.353000
     19 NAO          0.3230    -0.9140    -1.5510 nd         1 JPH      -0.205800
     20 NAK          0.7900     0.1430    -0.9130 na         1 JPH       0.116800
     21 CAJ          2.2070     0.4480    -0.9330 c3         1 JPH       0.096600
     22 C2           4.4240    -0.1320     0.0850 cd         1 JPH       0.663200
     23 CAA          7.3000    -1.8640     1.6300 c3         1 JPH      -0.070900
     24 O6           6.6900     2.2140    -0.9600 o          1 JPH      -0.540100
     25 H1           8.1450     0.4540     0.3850 ha         1 JPH       0.215000
     26 H4          -7.8800    -1.9110    -0.3020 h1         1 JPH       0.067200
     27 H5          -7.0160    -1.7740     1.2390 h1         1 JPH       0.067200
     28 H6          -7.7930     0.5410    -0.6100 h1         1 JPH       0.067700
     29 H7          -8.5280     0.1600     0.9570 h1         1 JPH       0.067700
     30 H8          -4.6410     2.4000     1.6630 ha         1 JPH       0.127000
     31 H9          -2.3090     2.0700     0.9850 ha         1 JPH       0.112000
     32 H10         -0.0140     1.6690     0.3270 h4         1 JPH       0.170000
     33 H11          2.5680     0.2990    -1.9480 h1         1 JPH       0.093700
     34 H12          2.3220     1.5010    -0.6900 h1         1 JPH       0.093700
     35 H15          7.2130    -2.8380     1.1450 hc         1 JPH       0.061700
     36 H16          8.3530    -1.6010     1.6890 hc         1 JPH       0.061700
     37 H17          6.9100    -1.9650     2.6440 hc         1 JPH       0.061700
     38 H18          4.7700    -1.8390     1.1590 hn         1 JPH       0.507000
     39 CAI          2.9570    -0.4320     0.0550 c3         1 JPH      -0.143700
     40 H3          -3.4440    -1.5180    -1.0850 ha         1 JPH       0.149000
     41 H13          2.5580    -0.2880     1.0630 hc         1 JPH       0.074700
     42 H14          2.8060    -1.4860    -0.1920 hc         1 JPH       0.074700
@<TRIPOS>BOND
     1     1     5 1   
     2     1    22 2   
     3     2     3 1   
     4     2    22 1   
     5     2    38 1   
     6     3     4 2   
     7     3    23 1   
     8     4     5 1   
     9     4    25 1   
    10     5    24 2   
    11     6     7 ar  
    12     6    15 ar  
    13     6    40 1   
    14     7     8 1   
    15     7    12 ar  
    16     8     9 1   
    17     9    10 1   
    18     9    26 1   
    19     9    27 1   
    20    10    11 1   
    21    10    28 1   
    22    10    29 1   
    23    11    12 1   
    24    12    13 ar  
    25    13    14 ar  
    26    13    30 1   
    27    14    15 ar  
    28    14    31 1   
    29    15    16 1   
    30    16    17 2   
    31    16    18 1   
    32    17    20 1   
    33    17    32 1   
    34    18    19 2   
    35    19    20 1   
    36    20    21 1   
    37    21    33 1   
    38    21    34 1   
    39    21    39 1   
    40    22    39 1   
    41    23    35 1   
    42    23    36 1   
    43    23    37 1   
    44    39    41 1   
    45    39    42 1   
@<TRIPOS>SUBSTRUCTURE
     1 JPH         1 TEMP              0 ****  ****    0 ROOT
