@<TRIPOS>MOLECULE
JPI
  123   123     1     0     0
SMALL
No Charge or Current Charge


@<TRIPOS>ATOM
      1 C1         255.4350   250.5960   228.8910 c6         1 JPI      -0.030000
      2 C10        253.3180   252.0500   228.2270 c3         1 JPI      -0.071400
      3 C11        252.2120   252.2810   227.1600 c3         1 JPI      -0.076400
      4 C12        251.4170   253.6110   227.3040 c3         1 JPI      -0.058700
      5 C13        250.2010   253.6110   226.3290 c3         1 JPI      -0.071400
      6 C14        249.2400   254.8260   226.4330 c3         1 JPI      -0.070400
      7 C15        249.5170   255.9500   225.3990 c3         1 JPI      -0.075400
      8 C16        248.7100   257.2610   225.6210 c3         1 JPI      -0.057700
      9 C17        249.2090   258.3700   224.6510 c3         1 JPI      -0.074400
     10 C18        248.6220   259.7800   224.9050 c3         1 JPI      -0.074400
     11 C19        249.2350   260.8610   223.9870 c3         1 JPI      -0.074400
     12 C2         255.8450   249.0880   229.0800 c6         1 JPI       0.184300
     13 C20        248.8820   262.3340   224.3360 c3         1 JPI      -0.066400
     14 C21        247.3870   262.7790   224.2640 c3         1 JPI      -0.058700
     15 C22        246.7160   262.3870   222.9170 c3         1 JPI      -0.071400
     16 C23        245.3550   263.0720   222.6440 c3         1 JPI      -0.072400
     17 C24        244.5640   262.5470   221.4130 c3         1 JPI      -0.066400
     18 C25        245.2030   262.6870   219.9960 c3         1 JPI      -0.054700
     19 C26        245.7040   264.1300   219.7060 c3         1 JPI      -0.071400
     20 C27        246.0980   264.3910   218.2320 c3         1 JPI      -0.075400
     21 C28        246.5170   265.8600   217.9760 c3         1 JPI      -0.072400
     22 C29        246.7990   266.2180   216.4880 c3         1 JPI      -0.057700
     23 C3         254.8530   248.2820   229.9680 c6         1 JPI      -0.147400
     24 C30        247.0010   267.7540   216.3350 c3         1 JPI      -0.073400
     25 C31        247.0910   268.2650   214.8760 c3         1 JPI      -0.070400
     26 C32        247.1520   269.8130   214.7890 c3         1 JPI      -0.103400
     27 C33        247.2490   270.4160   213.3550 c3         1 JPI       0.184000
     28 C34        246.0060   270.0820   212.4960 c3         1 JPI      -0.099100
     29 C35        248.5470   269.9900   212.6280 c3         1 JPI      -0.099100
     30 C36        252.3200   254.8620   227.1440 c3         1 JPI      -0.087100
     31 C37        247.1780   257.0330   225.5160 c3         1 JPI      -0.086100
     32 C38        246.5580   262.3620   225.5080 c3         1 JPI      -0.086100
     33 C39        246.2600   261.5960   219.6790 c3         1 JPI      -0.086100
     34 C4         253.3940   248.8110   229.9260 c6         1 JPI       0.182300
     35 C40        247.9870   265.4090   215.9040 c3         1 JPI      -0.086100
     36 C5         253.0310   249.4720   228.5660 c6         1 JPI      -0.055700
     37 C6         254.0130   250.6430   228.1760 c6         1 JPI      -0.054700
     38 C7         252.9100   248.4540   227.3890 c3         1 JPI      -0.081100
     39 C8         255.4770   251.3780   230.2570 c3         1 JPI      -0.080600
     40 C9         256.4920   251.3040   227.9730 c3         1 JPI      -0.080600
     41 O1         252.4870   247.7510   230.2470 oh         1 JPI      -0.660000
     42 O2         257.1680   248.9470   229.6170 oh         1 JPI      -0.659000
     43 O3         247.2960   271.8370   213.4980 oh         1 JPI      -0.662000
     44 H14        254.0710   252.8320   228.0950 hc         1 JPI       0.042200
     45 H55        252.8860   252.2080   229.2230 hc         1 JPI       0.042200
     46 H15        251.4990   251.4500   227.1980 hc         1 JPI       0.038200
     47 H56        252.6690   252.2420   226.1630 hc         1 JPI       0.038200
     48 H57        251.0100   253.6350   228.3230 hc         1 JPI       0.042700
     49 H58        249.6090   252.7090   226.5310 hc         1 JPI       0.037700
     50 H16        250.5550   253.5110   225.2950 hc         1 JPI       0.037700
     51 H59        249.2700   255.2340   227.4510 hc         1 JPI       0.038200
     52 H17        248.2200   254.4570   226.2780 hc         1 JPI       0.038200
     53 H18        249.3060   255.5650   224.3930 hc         1 JPI       0.037700
     54 H60        250.5850   256.1930   225.4100 hc         1 JPI       0.037700
     55 H61        248.9220   257.6040   226.6420 hc         1 JPI       0.042700
     56 H19        248.9920   258.0720   223.6170 hc         1 JPI       0.036200
     57 H62        250.3020   258.4380   224.7310 hc         1 JPI       0.036200
     58 H63        248.7810   260.0580   225.9540 hc         1 JPI       0.039200
     59 H20        247.5430   259.7460   224.7280 hc         1 JPI       0.039200
     60 H21        248.9560   260.6510   222.9470 hc         1 JPI       0.036200
     61 H64        250.3270   260.7690   224.0280 hc         1 JPI       0.036200
     62 H1         255.8290   248.6330   228.0790 h1         1 JPI       0.031700
     63 H65        249.4490   262.9720   223.6460 hc         1 JPI       0.036700
     64 H22        249.2760   262.5640   225.3330 hc         1 JPI       0.036700
     65 H66        247.4170   263.8760   224.2880 hc         1 JPI       0.040700
     66 H23        246.5850   261.2990   222.8760 hc         1 JPI       0.040200
     67 H67        247.4070   262.6610   222.1140 hc         1 JPI       0.040200
     68 H68        245.5090   264.1540   222.5490 hc         1 JPI       0.035200
     69 H24        244.7060   262.9360   223.5160 hc         1 JPI       0.035200
     70 H69        243.6060   263.0810   221.3960 hc         1 JPI       0.035700
     71 H25        244.3050   261.4950   221.5850 hc         1 JPI       0.035700
     72 H70        244.3780   262.5010   219.2960 hc         1 JPI       0.038700
     73 H26        246.5680   264.3520   220.3440 hc         1 JPI       0.038200
     74 H71        244.9150   264.8380   219.9870 hc         1 JPI       0.038200
     75 H27        245.2510   264.1380   217.5820 hc         1 JPI       0.038200
     76 H72        246.9250   263.7260   217.9630 hc         1 JPI       0.038200
     77 H73        247.4040   266.0900   218.5780 hc         1 JPI       0.037200
     78 H28        245.7140   266.5100   218.3450 hc         1 JPI       0.037200
     79 H74        245.9040   265.9490   215.9130 hc         1 JPI       0.043700
     80 H3         254.8830   247.2310   229.6480 hc         1 JPI       0.047700
     81 H2         255.1890   248.2900   231.0140 hc         1 JPI       0.047700
     82 H75        247.9060   268.0550   216.8780 hc         1 JPI       0.037700
     83 H29        246.1620   268.2660   216.8220 hc         1 JPI       0.037700
     84 H30        246.2210   267.8970   214.3200 hc         1 JPI       0.040200
     85 H76        247.9840   267.8460   214.4010 hc         1 JPI       0.040200
     86 H32        248.0140   270.1580   215.3750 hc         1 JPI       0.042700
     87 H31        246.2630   270.2220   215.2860 hc         1 JPI       0.042700
     88 H34        245.0800   270.3590   213.0150 hc         1 JPI       0.040867
     89 H35        246.0350   270.6230   211.5420 hc         1 JPI       0.040867
     90 H33        245.9600   269.0110   212.2660 hc         1 JPI       0.040867
     91 H37        249.4290   270.2050   213.2430 hc         1 JPI       0.040867
     92 H38        248.5410   268.9170   212.4020 hc         1 JPI       0.040867
     93 H36        248.6550   270.5280   211.6780 hc         1 JPI       0.040867
     94 H40        253.1500   254.8520   227.8590 hc         1 JPI       0.032033
     95 H41        252.7370   254.9170   226.1320 hc         1 JPI       0.032033
     96 H42        251.7560   255.7800   227.3400 hc         1 JPI       0.032033
     97 H44        246.8380   256.2790   226.2350 hc         1 JPI       0.031367
     98 H45        246.6220   257.9500   225.7390 hc         1 JPI       0.031367
     99 H43        246.9020   256.6970   224.5100 hc         1 JPI       0.031367
    100 H47        247.1500   262.4620   226.4260 hc         1 JPI       0.031367
    101 H46        245.6780   263.0060   225.6170 hc         1 JPI       0.031367
    102 H48        246.2020   261.3300   225.4360 hc         1 JPI       0.031367
    103 H49        245.9460   260.6200   220.0670 hc         1 JPI       0.031700
    104 H50        246.3870   261.4900   218.5950 hc         1 JPI       0.031700
    105 H51        247.2410   261.8380   220.1010 hc         1 JPI       0.031700
    106 H77        253.2850   249.5850   230.6950 h1         1 JPI       0.031700
    107 H52        247.8070   264.3300   215.9710 hc         1 JPI       0.032033
    108 H54        248.1400   265.6330   214.8420 hc         1 JPI       0.032033
    109 H53        248.9160   265.6370   216.4410 hc         1 JPI       0.032033
    110 H78        252.0180   249.8760   228.6880 hc         1 JPI       0.059700
    111 H79        254.2140   250.4930   227.1060 hc         1 JPI       0.048700
    112 H6         252.1790   247.6680   227.6100 hc         1 JPI       0.035033
    113 H5         252.5730   248.9490   226.4710 hc         1 JPI       0.035033
    114 H4         253.8650   247.9640   227.1690 hc         1 JPI       0.035033
    115 H7         254.7410   251.0290   230.9850 hc         1 JPI       0.036200
    116 H9         256.4590   251.2890   230.7370 hc         1 JPI       0.036200
    117 H8         255.3010   252.4500   230.1180 hc         1 JPI       0.036200
    118 H12        257.4910   251.3060   228.4270 hc         1 JPI       0.036200
    119 H11        256.5810   250.7990   227.0040 hc         1 JPI       0.036200
    120 H10        256.2370   252.3500   227.7740 hc         1 JPI       0.036200
    121 H80        252.7490   247.4170   231.1320 ho         1 JPI       0.441000
    122 H13        257.3580   247.9850   229.6440 ho         1 JPI       0.441000
    123 H39        246.4740   272.1030   213.9620 ho         1 JPI       0.437000
@<TRIPOS>BOND
     1     1    12 1   
     2     1    37 1   
     3     1    39 1   
     4     1    40 1   
     5     2     3 1   
     6     2    37 1   
     7     2    44 1   
     8     2    45 1   
     9     3     4 1   
    10     3    46 1   
    11     3    47 1   
    12     4     5 1   
    13     4    30 1   
    14     4    48 1   
    15     5     6 1   
    16     5    49 1   
    17     5    50 1   
    18     6     7 1   
    19     6    51 1   
    20     6    52 1   
    21     7     8 1   
    22     7    53 1   
    23     7    54 1   
    24     8     9 1   
    25     8    31 1   
    26     8    55 1   
    27     9    10 1   
    28     9    56 1   
    29     9    57 1   
    30    10    11 1   
    31    10    58 1   
    32    10    59 1   
    33    11    13 1   
    34    11    60 1   
    35    11    61 1   
    36    12    23 1   
    37    12    42 1   
    38    12    62 1   
    39    13    14 1   
    40    13    63 1   
    41    13    64 1   
    42    14    15 1   
    43    14    32 1   
    44    14    65 1   
    45    15    16 1   
    46    15    66 1   
    47    15    67 1   
    48    16    17 1   
    49    16    68 1   
    50    16    69 1   
    51    17    18 1   
    52    17    70 1   
    53    17    71 1   
    54    18    19 1   
    55    18    33 1   
    56    18    72 1   
    57    19    20 1   
    58    19    73 1   
    59    19    74 1   
    60    20    21 1   
    61    20    75 1   
    62    20    76 1   
    63    21    22 1   
    64    21    77 1   
    65    21    78 1   
    66    22    24 1   
    67    22    35 1   
    68    22    79 1   
    69    23    34 1   
    70    23    80 1   
    71    23    81 1   
    72    24    25 1   
    73    24    82 1   
    74    24    83 1   
    75    25    26 1   
    76    25    84 1   
    77    25    85 1   
    78    26    27 1   
    79    26    86 1   
    80    26    87 1   
    81    27    28 1   
    82    27    29 1   
    83    27    43 1   
    84    28    88 1   
    85    28    89 1   
    86    28    90 1   
    87    29    91 1   
    88    29    92 1   
    89    29    93 1   
    90    30    94 1   
    91    30    95 1   
    92    30    96 1   
    93    31    97 1   
    94    31    98 1   
    95    31    99 1   
    96    32   100 1   
    97    32   101 1   
    98    32   102 1   
    99    33   103 1   
   100    33   104 1   
   101    33   105 1   
   102    34    36 1   
   103    34    41 1   
   104    34   106 1   
   105    35   107 1   
   106    35   108 1   
   107    35   109 1   
   108    36    37 1   
   109    36    38 1   
   110    36   110 1   
   111    37   111 1   
   112    38   112 1   
   113    38   113 1   
   114    38   114 1   
   115    39   115 1   
   116    39   116 1   
   117    39   117 1   
   118    40   118 1   
   119    40   119 1   
   120    40   120 1   
   121    41   121 1   
   122    42   122 1   
   123    43   123 1   
@<TRIPOS>SUBSTRUCTURE
     1 JPI         1 TEMP              0 ****  ****    0 ROOT
