@<TRIPOS>MOLECULE
JPI
  123   123     1     0     0
SMALL
abcg2


@<TRIPOS>ATOM
      1 C1         255.6530   251.2260   227.7410 c6         1 JPI      -0.030000
      2 C10        253.3660   252.4030   227.7630 c3         1 JPI      -0.071400
      3 C11        252.0170   252.4870   227.0550 c3         1 JPI      -0.076400
      4 C12        251.1680   253.7020   227.4430 c3         1 JPI      -0.058700
      5 C13        249.7820   253.6000   226.7960 c3         1 JPI      -0.071400
      6 C14        248.8210   254.7530   227.1250 c3         1 JPI      -0.070400
      7 C15        248.7550   255.8250   226.0400 c3         1 JPI      -0.075400
      8 C16        248.0900   257.1360   226.4660 c3         1 JPI      -0.057700
      9 C17        248.1920   258.1630   225.3360 c3         1 JPI      -0.074400
     10 C18        247.7810   259.5850   225.7030 c3         1 JPI      -0.074400
     11 C19        248.0380   260.5620   224.5580 c3         1 JPI      -0.074400
     12 C2         256.2070   249.8050   227.8900 c6         1 JPI       0.184300
     13 C20        247.7100   262.0300   224.8570 c3         1 JPI      -0.066400
     14 C21        246.2860   262.5100   224.5460 c3         1 JPI      -0.058700
     15 C22        245.9370   262.3470   223.0600 c3         1 JPI      -0.071400
     16 C23        244.8230   263.2840   222.5960 c3         1 JPI      -0.072400
     17 C24        244.1150   262.9080   221.2930 c3         1 JPI      -0.066400
     18 C25        244.9260   262.8910   219.9880 c3         1 JPI      -0.054700
     19 C26        245.6820   264.2030   219.7710 c3         1 JPI      -0.071400
     20 C27        246.3030   264.3450   218.3850 c3         1 JPI      -0.075400
     21 C28        246.8760   265.7360   218.1320 c3         1 JPI      -0.072400
     22 C29        247.4670   265.9330   216.7320 c3         1 JPI      -0.057700
     23 C3         255.6380   249.0820   229.1150 c6         1 JPI      -0.147400
     24 C30        247.7250   267.4180   216.4620 c3         1 JPI      -0.073400
     25 C31        248.0520   267.7470   215.0090 c3         1 JPI      -0.070400
     26 C32        248.2610   269.2410   214.7860 c3         1 JPI      -0.103400
     27 C33        248.4610   269.6910   213.3310 c3         1 JPI       0.184000
     28 C34        247.2090   269.4330   212.4930 c3         1 JPI      -0.099100
     29 C35        249.6660   269.0070   212.6980 c3         1 JPI      -0.099100
     30 C36        251.8730   255.0150   227.1140 c3         1 JPI      -0.087100
     31 C37        246.6450   256.9260   226.9090 c3         1 JPI      -0.086100
     32 C38        245.2280   261.8620   225.4360 c3         1 JPI      -0.086100
     33 C39        245.8290   261.6670   219.8440 c3         1 JPI      -0.086100
     34 C4         254.1930   249.4700   229.4470 c6         1 JPI       0.182300
     35 C40        248.7320   265.1020   216.5340 c3         1 JPI      -0.086100
     36 C5         253.4190   249.8950   228.2060 c6         1 JPI      -0.055700
     37 C6         254.1150   251.0930   227.4940 c6         1 JPI      -0.054700
     38 C7         253.1350   248.7310   227.2550 c3         1 JPI      -0.081100
     39 C8         256.0190   252.0960   228.9520 c3         1 JPI      -0.080600
     40 C9         256.2710   251.8800   226.4990 c3         1 JPI      -0.080600
     41 O1         253.4910   248.4220   230.0850 oh         1 JPI      -0.660000
     42 O2         257.6180   249.8460   227.9300 oh         1 JPI      -0.659000
     43 O3         248.7610   271.0840   213.3190 oh         1 JPI      -0.662000
     44 H14        253.9800   253.2450   227.4330 hc         1 JPI       0.042200
     45 H55        253.2250   252.5340   228.8420 hc         1 JPI       0.042200
     46 H15        251.4320   251.5830   227.2580 hc         1 JPI       0.038200
     47 H56        252.1850   252.4980   225.9720 hc         1 JPI       0.038200
     48 H57        251.0200   253.6690   228.5310 hc         1 JPI       0.042700
     49 H58        249.3380   252.6530   227.1140 hc         1 JPI       0.037700
     50 H16        249.8990   253.5210   225.7080 hc         1 JPI       0.037700
     51 H59        249.1150   255.2120   228.0760 hc         1 JPI       0.038200
     52 H17        247.8190   254.3510   227.2930 hc         1 JPI       0.038200
     53 H18        248.2290   255.4200   225.1670 hc         1 JPI       0.037700
     54 H60        249.7670   256.0540   225.6950 hc         1 JPI       0.037700
     55 H61        248.6570   257.5230   227.3230 hc         1 JPI       0.042700
     56 H19        247.5910   257.8200   224.4850 hc         1 JPI       0.036200
     57 H62        249.2280   258.1870   224.9800 hc         1 JPI       0.036200
     58 H63        248.3470   259.9090   226.5840 hc         1 JPI       0.039200
     59 H20        246.7290   259.6130   225.9910 hc         1 JPI       0.039200
     60 H21        247.4960   260.2260   223.6670 hc         1 JPI       0.036200
     61 H64        249.0970   260.4900   224.2930 hc         1 JPI       0.036200
     62 H1         255.8910   249.2600   226.9870 h1         1 JPI       0.031700
     63 H65        248.3930   262.6610   224.2800 hc         1 JPI       0.036700
     64 H22        247.9350   262.2390   225.9090 hc         1 JPI       0.036700
     65 H66        246.2810   263.5860   224.7660 hc         1 JPI       0.040700
     66 H23        245.6470   261.3080   222.8680 hc         1 JPI       0.040200
     67 H67        246.8340   262.5260   222.4600 hc         1 JPI       0.040200
     68 H68        245.2200   264.3020   222.5280 hc         1 JPI       0.035200
     69 H24        244.0490   263.3300   223.3690 hc         1 JPI       0.035200
     70 H69        243.2930   263.6180   221.1580 hc         1 JPI       0.035700
     71 H25        243.6440   261.9270   221.4220 hc         1 JPI       0.035700
     72 H70        244.1800   262.8170   219.1870 hc         1 JPI       0.038700
     73 H26        246.4670   264.3060   220.5290 hc         1 JPI       0.038200
     74 H71        244.9900   265.0370   219.9390 hc         1 JPI       0.038200
     75 H27        245.5430   264.1330   217.6250 hc         1 JPI       0.038200
     76 H72        247.0820   263.5900   218.2550 hc         1 JPI       0.038200
     77 H73        247.6400   265.9650   218.8850 hc         1 JPI       0.037200
     78 H28        246.0760   266.4700   218.2810 hc         1 JPI       0.037200
     79 H74        246.7150   265.5920   216.0080 hc         1 JPI       0.043700
     80 H3         255.6900   248.0010   228.9460 hc         1 JPI       0.047700
     81 H2         256.2770   249.2940   229.9770 hc         1 JPI       0.047700
     82 H75        248.5330   267.7710   217.1140 hc         1 JPI       0.037700
     83 H29        246.8330   267.9860   216.7510 hc         1 JPI       0.037700
     84 H30        247.2370   267.3770   214.3790 hc         1 JPI       0.040200
     85 H76        248.9480   267.2060   214.6950 hc         1 JPI       0.040200
     86 H32        249.1330   269.5670   215.3630 hc         1 JPI       0.042700
     87 H31        247.4000   269.7850   215.1960 hc         1 JPI       0.042700
     88 H34        246.3400   269.9420   212.9180 hc         1 JPI       0.040867
     89 H35        247.3480   269.7990   211.4740 hc         1 JPI       0.040867
     90 H33        246.9700   268.3710   212.4330 hc         1 JPI       0.040867
     91 H37        250.5640   269.1440   213.3050 hc         1 JPI       0.040867
     92 H38        249.4990   267.9360   212.5890 hc         1 JPI       0.040867
     93 H36        249.8610   269.4120   211.7040 hc         1 JPI       0.040867
     94 H40        252.8440   255.0850   227.6070 hc         1 JPI       0.032033
     95 H41        252.0400   255.1140   226.0380 hc         1 JPI       0.032033
     96 H42        251.2930   255.8790   227.4410 hc         1 JPI       0.032033
     97 H44        246.5710   256.2290   227.7450 hc         1 JPI       0.031367
     98 H45        246.1800   257.8580   227.2310 hc         1 JPI       0.031367
     99 H43        246.0440   256.5250   226.0880 hc         1 JPI       0.031367
    100 H47        245.4950   261.9360   226.4920 hc         1 JPI       0.031367
    101 H46        244.2540   262.3390   225.3140 hc         1 JPI       0.031367
    102 H48        245.0990   260.8050   225.1970 hc         1 JPI       0.031367
    103 H49        245.2940   260.7520   220.1070 hc         1 JPI       0.031700
    104 H50        246.1760   261.5500   218.8160 hc         1 JPI       0.031700
    105 H51        246.7140   261.7240   220.4790 hc         1 JPI       0.031700
    106 H77        254.2150   250.3390   230.1170 h1         1 JPI       0.031700
    107 H52        248.5530   264.0390   216.6970 hc         1 JPI       0.032033
    108 H54        249.1340   265.2050   215.5260 hc         1 JPI       0.032033
    109 H53        249.5110   265.4160   217.2340 hc         1 JPI       0.032033
    110 H78        252.4430   250.2470   228.5580 hc         1 JPI       0.059700
    111 H79        254.0210   250.9000   226.4180 hc         1 JPI       0.048700
    112 H6         252.5270   247.9630   227.7310 hc         1 JPI       0.035033
    113 H5         252.5840   249.0890   226.3840 hc         1 JPI       0.035033
    114 H4         254.0430   248.2520   226.8860 hc         1 JPI       0.035033
    115 H7         255.5490   251.7760   229.8810 hc         1 JPI       0.036200
    116 H9         257.0980   252.0880   229.1120 hc         1 JPI       0.036200
    117 H8         255.7310   253.1340   228.7900 hc         1 JPI       0.036200
    118 H12        257.3270   252.1090   226.6400 hc         1 JPI       0.036200
    119 H11        256.1830   251.2300   225.6240 hc         1 JPI       0.036200
    120 H10        255.7660   252.8190   226.2610 hc         1 JPI       0.036200
    121 H80        253.9620   248.1960   230.8930 ho         1 JPI       0.441000
    122 H13        257.9410   248.9410   227.9790 ho         1 JPI       0.441000
    123 H39        248.0280   271.5490   213.7360 ho         1 JPI       0.437000
@<TRIPOS>BOND
     1     1    12 1   
     2     1    37 1   
     3     1    39 1   
     4     1    40 1   
     5     2     3 1   
     6     2    37 1   
     7     2    44 1   
     8     2    45 1   
     9     3     4 1   
    10     3    46 1   
    11     3    47 1   
    12     4     5 1   
    13     4    30 1   
    14     4    48 1   
    15     5     6 1   
    16     5    49 1   
    17     5    50 1   
    18     6     7 1   
    19     6    51 1   
    20     6    52 1   
    21     7     8 1   
    22     7    53 1   
    23     7    54 1   
    24     8     9 1   
    25     8    31 1   
    26     8    55 1   
    27     9    10 1   
    28     9    56 1   
    29     9    57 1   
    30    10    11 1   
    31    10    58 1   
    32    10    59 1   
    33    11    13 1   
    34    11    60 1   
    35    11    61 1   
    36    12    23 1   
    37    12    42 1   
    38    12    62 1   
    39    13    14 1   
    40    13    63 1   
    41    13    64 1   
    42    14    15 1   
    43    14    32 1   
    44    14    65 1   
    45    15    16 1   
    46    15    66 1   
    47    15    67 1   
    48    16    17 1   
    49    16    68 1   
    50    16    69 1   
    51    17    18 1   
    52    17    70 1   
    53    17    71 1   
    54    18    19 1   
    55    18    33 1   
    56    18    72 1   
    57    19    20 1   
    58    19    73 1   
    59    19    74 1   
    60    20    21 1   
    61    20    75 1   
    62    20    76 1   
    63    21    22 1   
    64    21    77 1   
    65    21    78 1   
    66    22    24 1   
    67    22    35 1   
    68    22    79 1   
    69    23    34 1   
    70    23    80 1   
    71    23    81 1   
    72    24    25 1   
    73    24    82 1   
    74    24    83 1   
    75    25    26 1   
    76    25    84 1   
    77    25    85 1   
    78    26    27 1   
    79    26    86 1   
    80    26    87 1   
    81    27    28 1   
    82    27    29 1   
    83    27    43 1   
    84    28    88 1   
    85    28    89 1   
    86    28    90 1   
    87    29    91 1   
    88    29    92 1   
    89    29    93 1   
    90    30    94 1   
    91    30    95 1   
    92    30    96 1   
    93    31    97 1   
    94    31    98 1   
    95    31    99 1   
    96    32   100 1   
    97    32   101 1   
    98    32   102 1   
    99    33   103 1   
   100    33   104 1   
   101    33   105 1   
   102    34    36 1   
   103    34    41 1   
   104    34   106 1   
   105    35   107 1   
   106    35   108 1   
   107    35   109 1   
   108    36    37 1   
   109    36    38 1   
   110    36   110 1   
   111    37   111 1   
   112    38   112 1   
   113    38   113 1   
   114    38   114 1   
   115    39   115 1   
   116    39   116 1   
   117    39   117 1   
   118    40   118 1   
   119    40   119 1   
   120    40   120 1   
   121    41   121 1   
   122    42   122 1   
   123    43   123 1   
@<TRIPOS>SUBSTRUCTURE
     1 JPI         1 TEMP              0 ****  ****    0 ROOT
