@<TRIPOS>MOLECULE
JPJ
   40    42     1     0     0
SMALL
No Charge or Current Charge


@<TRIPOS>ATOM
      1 Cl20        -6.2510    -5.1300     2.2160 cl         1 JPJ      -0.173000
      2 C15         -6.0260    -3.3950     2.4450 ca         1 JPJ       0.090000
      3 C16         -7.1560    -2.5650     2.5380 ca         1 JPJ      -0.066000
      4 C17         -6.9970    -1.1810     2.7180 ca         1 JPJ       0.088000
      5 Cl21        -8.4130    -0.1440     2.8340 cl         1 JPJ      -0.198000
      6 C22         -5.7100    -0.6220     2.8020 ca         1 JPJ      -0.068000
      7 C19         -4.5760    -1.4500     2.7100 ca         1 JPJ      -0.169000
      8 C14         -4.7300    -2.8430     2.5380 ca         1 JPJ       0.156100
      9 O13         -3.6300    -3.6700     2.4350 os         1 JPJ      -0.216200
     10 C2          -2.4180    -3.3700     3.0180 ca         1 JPJ       0.048100
     11 C1          -2.2900    -3.2190     4.4200 ca         1 JPJ       0.133100
     12 O22         -3.3660    -3.3760     5.2510 oh         1 JPJ      -0.513100
     13 C3          -1.2900    -3.2330     2.1940 ca         1 JPJ      -0.070000
     14 C4          -0.0390    -2.9260     2.7560 ca         1 JPJ      -0.138000
     15 C5           0.0950    -2.7640     4.1480 ca         1 JPJ      -0.031300
     16 C6          -1.0350    -2.9130     4.9750 ca         1 JPJ      -0.200000
     17 C7           1.4500    -2.4260     4.7540 c3         1 JPJ      -0.035100
     18 C18          1.6730    -0.9040     4.8650 c3         1 JPJ      -0.028100
     19 C28          3.0280    -0.5650     5.4700 ca         1 JPJ      -0.083300
     20 C27          3.1680    -0.4200     6.8640 ca         1 JPJ      -0.106500
     21 C26          4.4200    -0.1120     7.4240 ca         1 JPJ      -0.108000
     22 C25          5.5410     0.0520     6.5920 ca         1 JPJ      -0.109000
     23 C24          5.4080    -0.0930     5.2010 ca         1 JPJ      -0.108000
     24 C23          4.1560    -0.4010     4.6410 ca         1 JPJ      -0.106500
     25 H16         -8.1520    -2.9930     2.4690 ha         1 JPJ       0.144000
     26 H22         -5.5930     0.4510     2.9370 ha         1 JPJ       0.130000
     27 H19         -3.5860    -1.0060     2.7680 ha         1 JPJ       0.130000
     28 HO22        -3.0670    -3.2460     6.1750 ho         1 JPJ       0.468000
     29 H3          -1.3870    -3.3570     1.1180 ha         1 JPJ       0.134000
     30 H4           0.8280    -2.8140     2.1080 ha         1 JPJ       0.122000
     31 H6          -0.9300    -2.7900     6.0510 ha         1 JPJ       0.117000
     32 H71          1.5400    -2.8750     5.7510 hc         1 JPJ       0.055200
     33 H72          2.2540    -2.8630     4.1490 hc         1 JPJ       0.055200
     34 H181         0.8690    -0.4670     5.4700 hc         1 JPJ       0.049700
     35 H182         1.5810    -0.4550     3.8680 hc         1 JPJ       0.049700
     36 H27          2.3060    -0.5480     7.5160 ha         1 JPJ       0.109500
     37 H26          4.5220    -0.0010     8.5010 ha         1 JPJ       0.113000
     38 H25          6.5100     0.2900     7.0250 ha         1 JPJ       0.113000
     39 H24          6.2750     0.0330     4.5560 ha         1 JPJ       0.113000
     40 H23          4.0620    -0.5140     3.5640 ha         1 JPJ       0.109500
@<TRIPOS>BOND
     1     1     2 1   
     2     2     3 ar  
     3     2     8 ar  
     4     3     4 ar  
     5     3    25 1   
     6     4     5 1   
     7     4     6 ar  
     8     6     7 ar  
     9     6    26 1   
    10     7     8 ar  
    11     7    27 1   
    12     8     9 1   
    13     9    10 1   
    14    10    11 ar  
    15    10    13 ar  
    16    11    12 1   
    17    11    16 ar  
    18    12    28 1   
    19    13    14 ar  
    20    13    29 1   
    21    14    15 ar  
    22    14    30 1   
    23    15    16 ar  
    24    15    17 1   
    25    16    31 1   
    26    17    18 1   
    27    17    32 1   
    28    17    33 1   
    29    18    19 1   
    30    18    34 1   
    31    18    35 1   
    32    19    20 ar  
    33    19    24 ar  
    34    20    21 ar  
    35    20    36 1   
    36    21    22 ar  
    37    21    37 1   
    38    22    23 ar  
    39    22    38 1   
    40    23    24 ar  
    41    23    39 1   
    42    24    40 1   
@<TRIPOS>SUBSTRUCTURE
     1 JPJ         1 TEMP              0 ****  ****    0 ROOT
