@<TRIPOS>MOLECULE
JPJ
   40    42     1     0     0
SMALL
bcc


@<TRIPOS>ATOM
      1 CL20        -6.1820    -5.0290     2.1500 cl         1 JPJ      -0.081400
      2 C15         -5.9470    -3.3370     2.3910 ca         1 JPJ      -0.001600
      3 C16         -7.0240    -2.4740     2.2850 ca         1 JPJ      -0.084000
      4 C17         -6.8180    -1.1180     2.4830 ca         1 JPJ      -0.003600
      5 CL21        -8.1610    -0.0320     2.3560 cl         1 JPJ      -0.106400
      6 C22         -5.5580    -0.6270     2.7770 ca         1 JPJ      -0.086000
      7 C19         -4.4870    -1.5010     2.8770 ca         1 JPJ      -0.187000
      8 C14         -4.6690    -2.8650     2.6870 ca         1 JPJ       0.156100
      9 O13         -3.6800    -3.7820     2.7430 os         1 JPJ      -0.216200
     10 C2          -2.4450    -3.4080     3.2160 ca         1 JPJ       0.048100
     11 C1          -2.2530    -3.2680     4.5920 ca         1 JPJ       0.133100
     12 O22         -3.3220    -3.4440     5.3860 oh         1 JPJ      -0.474100
     13 C3          -1.3920    -3.2370     2.3380 ca         1 JPJ      -0.088000
     14 C4          -0.1270    -2.9320     2.8220 ca         1 JPJ      -0.156000
     15 C5           0.0880    -2.7890     4.1880 ca         1 JPJ      -0.031300
     16 C6          -0.9830    -2.9580     5.0630 ca         1 JPJ      -0.218000
     17 C7           1.4440    -2.4160     4.7180 c3         1 JPJ      -0.035100
     18 C18          1.5570    -0.9090     4.9990 c3         1 JPJ      -0.028100
     19 C28          2.9260    -0.5420     5.4970 ca         1 JPJ      -0.083300
     20 C27          3.2040    -0.5130     6.8620 ca         1 JPJ      -0.124500
     21 C26          4.4820    -0.2220     7.3230 ca         1 JPJ      -0.126000
     22 C25          5.5040     0.0450     6.4220 ca         1 JPJ      -0.127000
     23 C24          5.2380     0.0200     5.0580 ca         1 JPJ      -0.126000
     24 C23          3.9590    -0.2720     4.6030 ca         1 JPJ      -0.124500
     25 H16         -8.0060    -2.8610     2.0550 ha         1 JPJ       0.162000
     26 H22         -5.3990     0.4320     2.9260 ha         1 JPJ       0.148000
     27 H19         -3.5060    -1.1040     3.1000 ha         1 JPJ       0.148000
     28 HO22        -3.0780    -3.3100     6.3090 ho         1 JPJ       0.429000
     29 H3          -1.5640    -3.3530     1.2760 ha         1 JPJ       0.152000
     30 H4           0.6940    -2.8080     2.1270 ha         1 JPJ       0.140000
     31 H6          -0.8250    -2.8550     6.1320 ha         1 JPJ       0.135000
     32 H71          1.6570    -2.9670     5.6370 hc         1 JPJ       0.055200
     33 H72          2.2110    -2.7030     3.9960 hc         1 JPJ       0.055200
     34 H181         0.8020    -0.6240     5.7350 hc         1 JPJ       0.049700
     35 H182         1.3280    -0.3590     4.0830 hc         1 JPJ       0.049700
     36 H27          2.4120    -0.7170     7.5730 ha         1 JPJ       0.127500
     37 H26          4.6770    -0.2000     8.3880 ha         1 JPJ       0.131000
     38 H25          6.4990     0.2760     6.7790 ha         1 JPJ       0.131000
     39 H24          6.0270     0.2300     4.3480 ha         1 JPJ       0.131000
     40 H23          3.7610    -0.2880     3.5370 ha         1 JPJ       0.127500
@<TRIPOS>BOND
     1     1     2 1   
     2     2     3 ar  
     3     2     8 ar  
     4     3     4 ar  
     5     3    25 1   
     6     4     5 1   
     7     4     6 ar  
     8     6     7 ar  
     9     6    26 1   
    10     7     8 ar  
    11     7    27 1   
    12     8     9 1   
    13     9    10 1   
    14    10    11 ar  
    15    10    13 ar  
    16    11    12 1   
    17    11    16 ar  
    18    12    28 1   
    19    13    14 ar  
    20    13    29 1   
    21    14    15 ar  
    22    14    30 1   
    23    15    16 ar  
    24    15    17 1   
    25    16    31 1   
    26    17    18 1   
    27    17    32 1   
    28    17    33 1   
    29    18    19 1   
    30    18    34 1   
    31    18    35 1   
    32    19    20 ar  
    33    19    24 ar  
    34    20    21 ar  
    35    20    36 1   
    36    21    22 ar  
    37    21    37 1   
    38    22    23 ar  
    39    22    38 1   
    40    23    24 ar  
    41    23    39 1   
    42    24    40 1   
@<TRIPOS>SUBSTRUCTURE
     1 JPJ         1 TEMP              0 ****  ****    0 ROOT
