@<TRIPOS>MOLECULE
JPK
   52    55     1     0     0
SMALL
abcg2


@<TRIPOS>ATOM
      1 C4          -7.6450     0.7380     1.0880 ca         1 JPK      -0.107000
      2 C14          5.1730     0.7660    -0.4020 c6         1 JPK      -0.078000
      3 C5          -6.3820     0.5250     1.6250 ca         1 JPK      -0.086000
      4 C6          -5.2490     0.8030     0.8700 ca         1 JPK      -0.071300
      5 C11          0.8120    -3.1240    -0.0270 cc         1 JPK      -0.346000
      6 C7          -3.8750     0.5540     1.4200 c3         1 JPK      -0.108100
      7 C8          -3.3900    -0.8510     1.1040 c          1 JPK       0.601100
      8 C9          -1.4450    -2.1930     0.5130 c3         1 JPK       0.052700
      9 C10          0.0210    -1.9900     0.2490 cc         1 JPK       0.417300
     10 C12          2.1490    -2.9480    -0.2660 cd         1 JPK       0.228100
     11 C13          3.9040    -0.0070    -0.2710 cc         1 JPK       0.396600
     12 N1          -2.0940    -0.9410     0.7800 ns         1 JPK      -0.506900
     13 N2           2.6300    -1.6840    -0.2210 na         1 JPK       0.084900
     14 C3          -7.7850     1.2220    -0.2040 ca         1 JPK      -0.107000
     15 N3           3.9040    -1.3250    -0.4190 nd         1 JPK      -0.550100
     16 C15          5.5620     1.4390     0.9180 c6         1 JPK      -0.106900
     17 C16          6.8090     2.2870     0.7320 c6         1 JPK       0.154600
     18 O3           6.6500     3.2480    -0.2880 os         1 JPK      -0.449000
     19 C17          6.3680     2.6540    -1.5360 c6         1 JPK       0.154600
     20 C18          5.0920     1.8280    -1.5020 c6         1 JPK      -0.106900
     21 C19          2.6270     0.4990     0.0220 cc         1 JPK      -0.377600
     22 C20          1.8030    -0.6080     0.0540 cd         1 JPK       0.408500
     23 N4           0.4920    -0.7710     0.2880 nd         1 JPK      -0.699000
     24 O2           3.0410    -3.8720    -0.5400 oh         1 JPK      -0.485100
     25 O1          -4.1270    -1.8240     1.1680 o          1 JPK      -0.603100
     26 C21         -5.4040     1.2910    -0.4260 ca         1 JPK      -0.102000
     27 C2          -6.6620     1.5050    -0.9820 ca         1 JPK      -0.076300
     28 C1          -6.8130     2.0140    -2.3860 c3         1 JPK      -0.045800
     29 H1          -8.5260     0.5280     1.6810 ha         1 JPK       0.112000
     30 H2           5.9650     0.0550    -0.6660 hc         1 JPK       0.069700
     31 H3          -6.2800     0.1550     2.6380 ha         1 JPK       0.115000
     32 H4           0.3800    -4.1160    -0.0480 ha         1 JPK       0.143000
     33 H6          -3.1700     1.3000     1.0480 hc         1 JPK       0.064700
     34 H7          -3.8820     0.6500     2.5100 hc         1 JPK       0.064700
     35 H8          -1.8910    -2.6930    -0.3540 h1         1 JPK       0.066700
     36 H9          -8.7750     1.3880    -0.6120 ha         1 JPK       0.110000
     37 H10          4.7390     2.0650     1.2780 hc         1 JPK       0.054950
     38 H11          5.7480     0.6860     1.6880 hc         1 JPK       0.054950
     39 H12          7.0440     2.8300     1.6490 h1         1 JPK       0.044950
     40 H13          7.6650     1.6310     0.5100 h1         1 JPK       0.044950
     41 H14          6.2780     3.4640    -2.2620 h1         1 JPK       0.044950
     42 H15          7.2090     2.0200    -1.8560 h1         1 JPK       0.044950
     43 H16          4.9410     1.3600    -2.4770 hc         1 JPK       0.054950
     44 H17          4.2360     2.4880    -1.3260 hc         1 JPK       0.054950
     45 H18          2.3380     1.5220     0.1930 ha         1 JPK       0.230000
     46 H19         -4.5200     1.5130    -1.0150 ha         1 JPK       0.107000
     47 H20         -7.2270     1.2440    -3.0390 hc         1 JPK       0.041033
     48 H21         -7.4900     2.8680    -2.4290 hc         1 JPK       0.041033
     49 H22         -5.8560     2.3230    -2.8060 hc         1 JPK       0.041033
     50 H5          -1.5570    -2.8830     1.3550 h1         1 JPK       0.066700
     51 H23         -1.5170    -0.1140     0.7290 hn         1 JPK       0.345500
     52 H24          2.6330    -4.7480    -0.5500 ho         1 JPK       0.497000
@<TRIPOS>BOND
     1     1     3 ar  
     2     1    14 ar  
     3     1    29 1   
     4     2    11 1   
     5     2    16 1   
     6     2    20 1   
     7     2    30 1   
     8     3     4 ar  
     9     3    31 1   
    10     4     6 1   
    11     4    26 ar  
    12     5     9 1   
    13     5    10 2   
    14     5    32 1   
    15     6     7 1   
    16     6    33 1   
    17     6    34 1   
    18     7    12 1   
    19     7    25 2   
    20     8     9 1   
    21     8    12 1   
    22     8    35 1   
    23     8    50 1   
    24     9    23 2   
    25    10    13 1   
    26    10    24 1   
    27    11    15 2   
    28    11    21 1   
    29    12    51 1   
    30    13    15 1   
    31    13    22 1   
    32    14    27 ar  
    33    14    36 1   
    34    16    17 1   
    35    16    37 1   
    36    16    38 1   
    37    17    18 1   
    38    17    39 1   
    39    17    40 1   
    40    18    19 1   
    41    19    20 1   
    42    19    41 1   
    43    19    42 1   
    44    20    43 1   
    45    20    44 1   
    46    21    22 2   
    47    21    45 1   
    48    22    23 1   
    49    24    52 1   
    50    26    27 ar  
    51    26    46 1   
    52    27    28 1   
    53    28    47 1   
    54    28    48 1   
    55    28    49 1   
@<TRIPOS>SUBSTRUCTURE
     1 JPK         1 TEMP              0 ****  ****    0 ROOT
