@<TRIPOS>MOLECULE
JPK
   52    55     1     0     0
SMALL
No Charge or Current Charge


@<TRIPOS>ATOM
      1 C4          -7.2140     0.8560     0.0460 ca         1 JPK      -0.107000
      2 C14          4.6880     0.8600    -0.7410 c6         1 JPK      -0.078000
      3 C5          -6.4380     0.3650     1.1100 ca         1 JPK      -0.086000
      4 C6          -5.0500     0.5990     1.1420 ca         1 JPK      -0.071300
      5 C11          0.6570    -3.3020     0.1390 cc         1 JPK      -0.346000
      6 C7          -4.2030     0.0600     2.2900 c3         1 JPK      -0.108100
      7 C8          -3.6060    -1.3040     1.9290 c          1 JPK       0.601100
      8 C9          -1.5130    -2.4630     1.1130 c3         1 JPK       0.052700
      9 C10         -0.1070    -2.1660     0.6200 cc         1 JPK       0.417300
     10 C12          1.9500    -3.1830    -0.3420 cd         1 JPK       0.228100
     11 C13          3.5950    -0.1590    -0.4840 cc         1 JPK       0.396600
     12 N1          -2.2900    -1.2810     1.5300 ns         1 JPK      -0.506900
     13 N2           2.4310    -1.8730    -0.3130 na         1 JPK       0.084900
     14 C3          -6.6070     1.5840    -0.9910 ca         1 JPK      -0.107000
     15 N3           3.6890    -1.4640    -0.7340 nd         1 JPK      -0.550100
     16 C15          5.1550     1.5470     0.5750 c6         1 JPK      -0.106900
     17 C16          6.2120     2.6370     0.2740 c6         1 JPK       0.154600
     18 O3           5.6830     3.5840    -0.6810 os         1 JPK      -0.449000
     19 C17          5.3460     3.0020    -1.9600 c6         1 JPK       0.154600
     20 C18          4.2430     1.9320    -1.7780 c6         1 JPK      -0.106900
     21 C19          2.3490     0.2480     0.0660 cc         1 JPK      -0.377600
     22 C20          1.6160    -0.8770     0.1650 cd         1 JPK       0.408500
     23 N4           0.3340    -0.9020     0.6570 nd         1 JPK      -0.699000
     24 O2           2.7020    -4.2070    -0.8000 oh         1 JPK      -0.485100
     25 O1          -4.2490    -2.3440     1.9790 o          1 JPK      -0.603100
     26 C21         -4.4470     1.3280     0.0980 ca         1 JPK      -0.102000
     27 C2          -5.2200     1.8240    -0.9690 ca         1 JPK      -0.076300
     28 C1          -4.5590     2.6070    -2.0940 c3         1 JPK      -0.045800
     29 H1          -8.2860     0.6720     0.0260 ha         1 JPK       0.112000
     30 H2           5.5560     0.3330    -1.1630 hc         1 JPK       0.069700
     31 H3          -6.9170    -0.2010     1.9070 ha         1 JPK       0.115000
     32 H4           0.1760    -4.2740     0.1650 ha         1 JPK       0.143000
     33 H6          -3.3970     0.7730     2.5000 hc         1 JPK       0.064700
     34 H7          -4.8250    -0.0550     3.1850 hc         1 JPK       0.064700
     35 H8          -2.0610    -2.9750     0.3120 h1         1 JPK       0.066700
     36 H9          -7.2140     1.9590    -1.8120 ha         1 JPK       0.110000
     37 H10          4.3040     2.0080     1.0950 hc         1 JPK       0.054950
     38 H11          5.5760     0.8020     1.2630 hc         1 JPK       0.054950
     39 H12          6.4770     3.1700     1.1980 h1         1 JPK       0.044950
     40 H13          7.1270     2.1820    -0.1330 h1         1 JPK       0.044950
     41 H14          4.9930     3.7960    -2.6330 h1         1 JPK       0.044950
     42 H15          6.2470     2.5530    -2.4040 h1         1 JPK       0.044950
     43 H16          4.0240     1.4560    -2.7440 hc         1 JPK       0.054950
     44 H17          3.3170     2.4240    -1.4530 hc         1 JPK       0.054950
     45 H18          2.0560     1.2520     0.3430 ha         1 JPK       0.230000
     46 H19         -3.3750     1.5080     0.1140 ha         1 JPK       0.107000
     47 H20         -4.1990     1.9320    -2.8790 hc         1 JPK       0.041033
     48 H21         -5.2590     3.3140    -2.5550 hc         1 JPK       0.041033
     49 H22         -3.7020     3.1840    -1.7280 hc         1 JPK       0.041033
     50 H5          -1.4440    -3.1520     1.9650 h1         1 JPK       0.066700
     51 H23         -1.8250    -0.3800     1.5030 hn         1 JPK       0.345500
     52 H24          2.1550    -5.0170    -0.7210 ho         1 JPK       0.497000
@<TRIPOS>BOND
     1     1     3 ar  
     2     1    14 ar  
     3     1    29 1   
     4     2    11 1   
     5     2    16 1   
     6     2    20 1   
     7     2    30 1   
     8     3     4 ar  
     9     3    31 1   
    10     4     6 1   
    11     4    26 ar  
    12     5     9 1   
    13     5    10 2   
    14     5    32 1   
    15     6     7 1   
    16     6    33 1   
    17     6    34 1   
    18     7    12 1   
    19     7    25 2   
    20     8     9 1   
    21     8    12 1   
    22     8    35 1   
    23     8    50 1   
    24     9    23 2   
    25    10    13 1   
    26    10    24 1   
    27    11    15 2   
    28    11    21 1   
    29    12    51 1   
    30    13    15 1   
    31    13    22 1   
    32    14    27 ar  
    33    14    36 1   
    34    16    17 1   
    35    16    37 1   
    36    16    38 1   
    37    17    18 1   
    38    17    39 1   
    39    17    40 1   
    40    18    19 1   
    41    19    20 1   
    42    19    41 1   
    43    19    42 1   
    44    20    43 1   
    45    20    44 1   
    46    21    22 2   
    47    21    45 1   
    48    22    23 1   
    49    24    52 1   
    50    26    27 ar  
    51    26    46 1   
    52    27    28 1   
    53    28    47 1   
    54    28    48 1   
    55    28    49 1   
@<TRIPOS>SUBSTRUCTURE
     1 JPK         1 TEMP              0 ****  ****    0 ROOT
