@<TRIPOS>MOLECULE
JPL
   43    45     1     0     0
SMALL
bcc


@<TRIPOS>ATOM
      1 C2          -0.4370     1.7640     1.1170 ca         1 JPL       0.151100
      2 C3           0.2520     1.6530    -0.0870 ca         1 JPL      -0.020900
      3 C4          -0.4290     1.5130    -1.2840 ca         1 JPL      -0.089000
      4 C5          -1.8120     1.4650    -1.2890 ca         1 JPL      -0.159000
      5 C7           3.7140     0.6620    -0.2360 ca         1 JPL      -0.003600
      6 C8           2.3300     0.5560    -0.1100 ca         1 JPL       0.131100
      7 C9           1.7580    -0.7070    -0.0300 ca         1 JPL      -0.182000
      8 C10          2.5510    -1.8430    -0.0740 ca         1 JPL      -0.085000
      9 C11          3.9230    -1.7150    -0.2000 ca         1 JPL       0.001400
     10 C12          4.5160    -0.4640    -0.2810 ca         1 JPL      -0.086000
     11 C15         -6.1130    -2.3840     0.2770 c6         1 JPL      -0.074400
     12 C16         -4.5920    -2.3780     0.3890 c6         1 JPL      -0.072900
     13 C19         -6.0530     0.0130    -0.4930 c6         1 JPL      -0.072400
     14 O2           0.1870     1.9060     2.3010 oh         1 JPL      -0.489100
     15 C1          -1.8280     1.7160     1.0970 ca         1 JPL      -0.163000
     16 C6          -2.5260     1.5560    -0.0930 ca         1 JPL      -0.029300
     17 C13         -4.5280     0.0290    -0.3850 c6         1 JPL      -0.057700
     18 C14         -6.5890    -1.3870    -0.7750 c6         1 JPL      -0.072900
     19 C17         -4.0580    -0.9760     0.6650 c6         1 JPL      -0.072400
     20 O1           1.6310     1.7160    -0.0610 os         1 JPL      -0.237200
     21 CL5          4.9200    -3.1280    -0.2600 cl         1 JPL      -0.099400
     22 H1           0.1300     1.4380    -2.2090 ha         1 JPL       0.148000
     23 H2          -2.3400     1.3530    -2.2280 ha         1 JPL       0.140000
     24 H3           0.6870    -0.8210     0.0680 ha         1 JPL       0.155000
     25 H4           2.0910    -2.8180    -0.0060 ha         1 JPL       0.152000
     26 H5           5.5880    -0.3610    -0.3780 ha         1 JPL       0.164000
     27 H6          -6.4730    -3.3880     0.0400 hc         1 JPL       0.038700
     28 H7          -6.5470    -2.1170     1.2470 hc         1 JPL       0.038700
     29 H8          -4.2660    -3.0640     1.1750 hc         1 JPL       0.038950
     30 H9          -4.1570    -2.7490    -0.5460 hc         1 JPL       0.038950
     31 H12         -6.4840     0.3820     0.4460 hc         1 JPL       0.039700
     32 H13         -6.3760     0.7070    -1.2750 hc         1 JPL       0.039700
     33 H14          1.1320     2.0530     2.1760 ho         1 JPL       0.444000
     34 H15         -2.3670     1.8010     2.0340 ha         1 JPL       0.151000
     35 H16         -6.2500    -1.7130    -1.7640 hc         1 JPL       0.038950
     36 H17         -7.6810    -1.3700    -0.8130 hc         1 JPL       0.038950
     37 H18         -4.3960    -0.6420     1.6550 hc         1 JPL       0.039700
     38 H19         -4.1200    -0.2830    -1.3570 hc         1 JPL       0.047700
     39 H20         -2.9660    -0.9960     0.7070 hc         1 JPL       0.039700
     40 C18         -4.0250     1.4490    -0.0960 c3         1 JPL      -0.034100
     41 CL1          4.4310     2.2270    -0.3300 cl         1 JPL      -0.079400
     42 H10         -4.4230     1.7800     0.8670 hc         1 JPL       0.052200
     43 H11         -4.4360     2.1250    -0.8530 hc         1 JPL       0.052200
@<TRIPOS>BOND
     1     1     2 ar  
     2     1    14 1   
     3     1    15 ar  
     4     2     3 ar  
     5     2    20 1   
     6     3     4 ar  
     7     3    22 1   
     8     4    16 ar  
     9     4    23 1   
    10     5     6 ar  
    11     5    10 ar  
    12     5    41 1   
    13     6     7 ar  
    14     6    20 1   
    15     7     8 ar  
    16     7    24 1   
    17     8     9 ar  
    18     8    25 1   
    19     9    10 ar  
    20     9    21 1   
    21    10    26 1   
    22    11    12 1   
    23    11    18 1   
    24    11    27 1   
    25    11    28 1   
    26    12    19 1   
    27    12    29 1   
    28    12    30 1   
    29    13    17 1   
    30    13    18 1   
    31    13    31 1   
    32    13    32 1   
    33    14    33 1   
    34    15    16 ar  
    35    15    34 1   
    36    16    40 1   
    37    17    19 1   
    38    17    38 1   
    39    17    40 1   
    40    18    35 1   
    41    18    36 1   
    42    19    37 1   
    43    19    39 1   
    44    40    42 1   
    45    40    43 1   
@<TRIPOS>SUBSTRUCTURE
     1 JPL         1 TEMP              0 ****  ****    0 ROOT
