@<TRIPOS>MOLECULE
JPL
   43    45     1     0     0
SMALL
No Charge or Current Charge


@<TRIPOS>ATOM
      1 C2          -0.5790     1.7560     1.4370 ca         1 JPL       0.151100
      2 C3           0.3190     1.3680     0.4240 ca         1 JPL      -0.020900
      3 C4          -0.1760     1.0130    -0.8470 ca         1 JPL      -0.071000
      4 C5          -1.5600     1.0240    -1.0900 ca         1 JPL      -0.141000
      5 C7           3.8220     0.8350    -0.2810 ca         1 JPL       0.088000
      6 C8           2.5420     0.4360     0.1590 ca         1 JPL       0.131100
      7 C9           2.1710    -0.9230     0.0920 ca         1 JPL      -0.164000
      8 C10          3.0680    -1.8720    -0.4310 ca         1 JPL      -0.067000
      9 C11          4.3360    -1.4670    -0.8790 ca         1 JPL       0.093000
     10 C12          4.7150    -0.1170    -0.8030 ca         1 JPL      -0.068000
     11 C15         -6.5250    -2.1720     0.3680 c6         1 JPL      -0.074400
     12 C16         -5.0310    -2.2520     0.7640 c6         1 JPL      -0.072900
     13 C19         -6.0860     0.0400    -0.8330 c6         1 JPL      -0.072400
     14 O2          -0.1090     2.1190     2.6660 oh         1 JPL      -0.528100
     15 C1          -1.9610     1.7660     1.1910 ca         1 JPL      -0.145000
     16 C6          -2.4610     1.3960    -0.0730 ca         1 JPL      -0.029300
     17 C13         -4.5820    -0.0300    -0.4420 c6         1 JPL      -0.057700
     18 C14         -6.7120    -1.3730    -0.9440 c6         1 JPL      -0.072900
     19 C17         -4.4020    -0.8410     0.8740 c6         1 JPL      -0.072400
     20 O1           1.6750     1.3730     0.6820 os         1 JPL      -0.237200
     21 Cl5          5.4560    -2.6560    -1.5320 cl         1 JPL      -0.191000
     22 H1           0.5070     0.7320    -1.6460 ha         1 JPL       0.130000
     23 H2          -1.9350     0.7430    -2.0720 ha         1 JPL       0.122000
     24 H3           1.1940    -1.2430     0.4470 ha         1 JPL       0.137000
     25 H4           2.7820    -2.9210    -0.4870 ha         1 JPL       0.134000
     26 H5           5.6990     0.1920    -1.1460 ha         1 JPL       0.146000
     27 H6          -6.9350    -3.1850     0.2500 hc         1 JPL       0.038700
     28 H7          -7.0970    -1.6960     1.1770 hc         1 JPL       0.038700
     29 H8          -4.9260    -2.7820     1.7200 hc         1 JPL       0.038950
     30 H9          -4.4820    -2.8440     0.0180 hc         1 JPL       0.038950
     31 H12         -6.6390     0.6280    -0.0870 hc         1 JPL       0.039700
     32 H13         -6.2010     0.5660    -1.7910 hc         1 JPL       0.039700
     33 H14          0.8700     2.0550     2.6280 ho         1 JPL       0.483000
     34 H15         -2.6430     2.0580     1.9850 ha         1 JPL       0.133000
     35 H16         -6.2500    -1.9180    -1.7790 hc         1 JPL       0.038950
     36 H17         -7.7810    -1.2890    -1.1800 hc         1 JPL       0.038950
     37 H18         -4.8600    -0.2980     1.7120 hc         1 JPL       0.039700
     38 H19         -4.0430    -0.5490    -1.2470 hc         1 JPL       0.047700
     39 H20         -3.3350    -0.9420     1.1150 hc         1 JPL       0.039700
     40 C18         -3.9620     1.3960    -0.3410 c3         1 JPL      -0.034100
     41 Cl1          4.3180     2.5250    -0.1930 cl         1 JPL      -0.171000
     42 H10         -4.4810     1.9680     0.4380 hc         1 JPL       0.052200
     43 H11         -4.1510     1.9410    -1.2750 hc         1 JPL       0.052200
@<TRIPOS>BOND
     1     1     2 ar  
     2     1    14 1   
     3     1    15 ar  
     4     2     3 ar  
     5     2    20 1   
     6     3     4 ar  
     7     3    22 1   
     8     4    16 ar  
     9     4    23 1   
    10     5     6 ar  
    11     5    10 ar  
    12     5    41 1   
    13     6     7 ar  
    14     6    20 1   
    15     7     8 ar  
    16     7    24 1   
    17     8     9 ar  
    18     8    25 1   
    19     9    10 ar  
    20     9    21 1   
    21    10    26 1   
    22    11    12 1   
    23    11    18 1   
    24    11    27 1   
    25    11    28 1   
    26    12    19 1   
    27    12    29 1   
    28    12    30 1   
    29    13    17 1   
    30    13    18 1   
    31    13    31 1   
    32    13    32 1   
    33    14    33 1   
    34    15    16 ar  
    35    15    34 1   
    36    16    40 1   
    37    17    19 1   
    38    17    38 1   
    39    17    40 1   
    40    18    35 1   
    41    18    36 1   
    42    19    37 1   
    43    19    39 1   
    44    40    42 1   
    45    40    43 1   
@<TRIPOS>SUBSTRUCTURE
     1 JPL         1 TEMP              0 ****  ****    0 ROOT
