@<TRIPOS>MOLECULE
JPM
   37    39     1     0     0
SMALL
No Charge or Current Charge


@<TRIPOS>ATOM
      1 C2          -0.8830    -1.5790    -1.4950 ca         1 JPM       0.151100
      2 C3           0.0580    -1.2850    -0.4890 ca         1 JPM      -0.016900
      3 C4          -0.3800    -1.0740     0.8350 ca         1 JPM      -0.072000
      4 C5          -1.7510    -1.1360     1.1390 ca         1 JPM      -0.141000
      5 C7           3.5830    -0.7800     0.1120 ca         1 JPM       0.087000
      6 C8           2.2820    -0.3530    -0.2250 ca         1 JPM       0.131100
      7 C9           1.9020     0.9850     0.0050 ca         1 JPM      -0.164000
      8 C10          2.8130     1.8850     0.5890 ca         1 JPM      -0.067000
      9 C11          4.1040     1.4510     0.9340 ca         1 JPM       0.093000
     10 C12          4.4910     0.1220     0.6950 ca         1 JPM      -0.067000
     11 C15         -6.0810     2.3800    -0.1680 ca         1 JPM      -0.108000
     12 C16         -5.4750     2.0870     1.0650 ca         1 JPM      -0.108500
     13 C19         -5.4580     0.1760    -0.9940 ca         1 JPM      -0.103500
     14 O2          -0.4680    -1.8000    -2.7760 oh         1 JPM      -0.527100
     15 O1           1.4000    -1.2390    -0.8090 os         1 JPM      -0.239200
     16 Cl5          5.2420     2.5770     1.6620 cl         1 JPM      -0.191000
     17 C1          -2.2510    -1.6390    -1.1870 ca         1 JPM      -0.139000
     18 C6          -2.6940    -1.4170     0.1310 ca         1 JPM      -0.031300
     19 C13         -4.8510    -0.1240     0.2410 ca         1 JPM      -0.081300
     20 C17         -4.8620     0.8390     1.2690 ca         1 JPM      -0.103500
     21 C14         -6.0720     1.4240    -1.1980 ca         1 JPM      -0.108500
     22 H4           0.3360    -0.8670     1.6270 ha         1 JPM       0.130000
     23 H5          -2.0810    -0.9650     2.1610 ha         1 JPM       0.120000
     24 H9           0.9070     1.3280    -0.2700 ha         1 JPM       0.139000
     25 H10          2.5210     2.9170     0.7700 ha         1 JPM       0.134000
     26 H12          5.4920    -0.2090     0.9590 ha         1 JPM       0.146000
     27 H15         -6.5560     3.3460    -0.3260 ha         1 JPM       0.113000
     28 H16         -5.4800     2.8270     1.8630 ha         1 JPM       0.112500
     29 H18         -4.6690    -2.2420    -0.1500 hc         1 JPM       0.058200
     30 H18A        -4.3220    -1.7980     1.5000 hc         1 JPM       0.058200
     31 H19         -5.4540    -0.5570    -1.7980 ha         1 JPM       0.111000
     32 HO2          0.5120    -1.7240    -2.7780 ho         1 JPM       0.483000
     33 H1          -2.9680    -1.8580    -1.9740 ha         1 JPM       0.135000
     34 H17         -4.3920     0.6210     2.2260 ha         1 JPM       0.111000
     35 H14         -6.5390     1.6510    -2.1540 ha         1 JPM       0.112500
     36 C18         -4.1800    -1.4740     0.4610 c3         1 JPM       0.011200
     37 Cl1          4.0900    -2.4440    -0.1810 cl         1 JPM      -0.171000
@<TRIPOS>BOND
     1     1     2 ar  
     2     1    14 1   
     3     1    17 ar  
     4     2     3 ar  
     5     2    15 1   
     6     3     4 ar  
     7     3    22 1   
     8     4    18 ar  
     9     4    23 1   
    10     5     6 ar  
    11     5    10 ar  
    12     5    37 1   
    13     6     7 ar  
    14     6    15 1   
    15     7     8 ar  
    16     7    24 1   
    17     8     9 ar  
    18     8    25 1   
    19     9    10 ar  
    20     9    16 1   
    21    10    26 1   
    22    11    12 ar  
    23    11    21 ar  
    24    11    27 1   
    25    12    20 ar  
    26    12    28 1   
    27    13    19 ar  
    28    13    21 ar  
    29    13    31 1   
    30    14    32 1   
    31    17    18 ar  
    32    17    33 1   
    33    18    36 1   
    34    19    20 ar  
    35    19    36 1   
    36    20    34 1   
    37    21    35 1   
    38    29    36 1   
    39    30    36 1   
@<TRIPOS>SUBSTRUCTURE
     1 JPM         1 TEMP              0 ****  ****    0 ROOT
