@<TRIPOS>MOLECULE
JPM
   37    39     1     0     0
SMALL
bcc


@<TRIPOS>ATOM
      1 C2          -0.7560    -1.4130    -1.1700 ca         1 JPM       0.151100
      2 C3           0.0310    -1.5840    -0.0300 ca         1 JPM      -0.016900
      3 C4          -0.5480    -1.7460     1.2140 ca         1 JPM      -0.090000
      4 C5          -1.9300    -1.7270     1.3390 ca         1 JPM      -0.159000
      5 C7           3.5080    -0.6240    -0.0510 ca         1 JPM      -0.004600
      6 C8           2.1230    -0.5070     0.0520 ca         1 JPM       0.131100
      7 C9           1.5740     0.7250     0.3780 ca         1 JPM      -0.182000
      8 C10          2.3930     1.8220     0.6000 ca         1 JPM      -0.085000
      9 C11          3.7660     1.6850     0.4940 ca         1 JPM       0.001400
     10 C12          4.3350     0.4640     0.1680 ca         1 JPM      -0.085000
     11 C15         -5.6440     2.5340    -0.3090 ca         1 JPM      -0.126000
     12 C16         -5.0190     2.1920     0.8850 ca         1 JPM      -0.126500
     13 C19         -5.3820     0.2660    -1.0730 ca         1 JPM      -0.121500
     14 O2          -0.2260    -1.2590    -2.3970 oh         1 JPM      -0.488100
     15 O1           1.4000    -1.6290    -0.1880 os         1 JPM      -0.239200
     16 CL5          4.7930     3.0500     0.7690 cl         1 JPM      -0.099400
     17 C1          -2.1370    -1.3980    -1.0300 ca         1 JPM      -0.157000
     18 C6          -2.7330    -1.5440     0.2180 ca         1 JPM      -0.031300
     19 C13         -4.7530    -0.0840     0.1170 ca         1 JPM      -0.081300
     20 C17         -4.5780     0.8940     1.0940 ca         1 JPM      -0.121500
     21 C14         -5.8250     1.5670    -1.2870 ca         1 JPM      -0.126500
     22 H4           0.0820    -1.8870     2.0830 ha         1 JPM       0.148000
     23 H5          -2.3790    -1.8570     2.3150 ha         1 JPM       0.138000
     24 H9           0.5030     0.8470     0.4660 ha         1 JPM       0.157000
     25 H10          1.9510     2.7750     0.8540 ha         1 JPM       0.152000
     26 H12          5.4070     0.3530     0.0840 ha         1 JPM       0.164000
     27 H15         -5.9900     3.5460    -0.4730 ha         1 JPM       0.131000
     28 H16         -4.8770     2.9400     1.6550 ha         1 JPM       0.130500
     29 H18         -4.6920    -2.1640    -0.3810 hc         1 JPM       0.058200
     30 H18A        -4.5300    -1.8340     1.3330 hc         1 JPM       0.058200
     31 H19         -5.5290    -0.4830    -1.8430 ha         1 JPM       0.129000
     32 HO2          0.7240    -1.4300    -2.3850 ho         1 JPM       0.444000
     33 H1          -2.7500    -1.2630    -1.9150 ha         1 JPM       0.153000
     34 H17         -4.0910     0.6360     2.0280 ha         1 JPM       0.129000
     35 H14         -6.3140     1.8220    -2.2190 ha         1 JPM       0.130500
     36 C18         -4.2350    -1.4830     0.3410 c3         1 JPM       0.011200
     37 CL1          4.1940    -2.1500    -0.4640 cl         1 JPM      -0.079400
@<TRIPOS>BOND
     1     1     2 ar  
     2     1    14 1   
     3     1    17 ar  
     4     2     3 ar  
     5     2    15 1   
     6     3     4 ar  
     7     3    22 1   
     8     4    18 ar  
     9     4    23 1   
    10     5     6 ar  
    11     5    10 ar  
    12     5    37 1   
    13     6     7 ar  
    14     6    15 1   
    15     7     8 ar  
    16     7    24 1   
    17     8     9 ar  
    18     8    25 1   
    19     9    10 ar  
    20     9    16 1   
    21    10    26 1   
    22    11    12 ar  
    23    11    21 ar  
    24    11    27 1   
    25    12    20 ar  
    26    12    28 1   
    27    13    19 ar  
    28    13    21 ar  
    29    13    31 1   
    30    14    32 1   
    31    17    18 ar  
    32    17    33 1   
    33    18    36 1   
    34    19    20 ar  
    35    19    36 1   
    36    20    34 1   
    37    21    35 1   
    38    29    36 1   
    39    30    36 1   
@<TRIPOS>SUBSTRUCTURE
     1 JPM         1 TEMP              0 ****  ****    0 ROOT
