@<TRIPOS>MOLECULE
JPN
   43    45     1     0     0
SMALL
No Charge or Current Charge


@<TRIPOS>ATOM
      1 Cl24         5.2860     2.9920    -3.0460 cl         1 JPN      -0.173000
      2 C18          6.5480     2.9890    -1.8140 ca         1 JPN       0.090000
      3 C19          7.7750     3.6180    -2.0890 ca         1 JPN      -0.067000
      4 C17          6.3350     2.3690    -0.5640 ca         1 JPN       0.156100
      5 C22          7.3660     2.3700     0.4010 ca         1 JPN      -0.168000
      6 C21          8.5920     3.0010     0.1210 ca         1 JPN      -0.068000
      7 C20          8.7930     3.6250    -1.1220 ca         1 JPN       0.089000
      8 Cl25        10.3270     4.4130    -1.4690 cl         1 JPN      -0.198000
      9 O16          5.1290     1.7460    -0.3130 os         1 JPN      -0.216200
     10 C13          4.6210     1.5970     0.9600 ca         1 JPN       0.048100
     11 C14          4.3880     0.2990     1.4440 ca         1 JPN      -0.071000
     12 C15          3.8720     0.1120     2.7380 ca         1 JPN      -0.138000
     13 C10          3.5780     1.2210     3.5540 ca         1 JPN      -0.029300
     14 C11          3.8030     2.5220     3.0640 ca         1 JPN      -0.199000
     15 C12          4.3190     2.7170     1.7710 ca         1 JPN       0.133100
     16 O23          4.5090     3.9930     1.3150 oh         1 JPN      -0.514100
     17 C9           3.0270     1.0150     4.9580 c3         1 JPN      -0.037100
     18 C8           4.1500     0.9210     6.0120 c3         1 JPN      -0.072400
     19 C7           3.6240     0.7110     7.4480 c3         1 JPN      -0.031100
     20 C3           4.7550     0.6220     8.4640 ca         1 JPN      -0.080300
     21 C4           5.3360    -0.6240     8.7740 ca         1 JPN      -0.107000
     22 C5           6.3830    -0.7050     9.7080 ca         1 JPN      -0.108000
     23 C6           6.8570     0.4590    10.3360 ca         1 JPN      -0.110000
     24 C1           6.2840     1.7040    10.0290 ca         1 JPN      -0.108000
     25 C2           5.2360     1.7860     9.0950 ca         1 JPN      -0.107000
     26 H19          7.9360     4.0980    -3.0500 ha         1 JPN       0.144000
     27 H22          7.2230     1.8840     1.3630 ha         1 JPN       0.131000
     28 H21          9.3850     3.0050     0.8640 ha         1 JPN       0.131000
     29 H14          4.6130    -0.5610     0.8180 ha         1 JPN       0.134000
     30 H15          3.7020    -0.8970     3.1070 ha         1 JPN       0.121000
     31 H11          3.5730     3.3780     3.6940 ha         1 JPN       0.117000
     32 HO23         4.2280     4.6190     2.0160 ho         1 JPN       0.468000
     33 H91          2.4210     0.1010     4.9940 hc         1 JPN       0.050200
     34 H92          2.3530     1.8390     5.2220 hc         1 JPN       0.050200
     35 H81          4.8200     0.0920     5.7500 hc         1 JPN       0.046700
     36 H82          4.7510     1.8380     5.9800 hc         1 JPN       0.046700
     37 H71          2.9480     1.5350     7.7080 hc         1 JPN       0.046200
     38 H72          3.0180    -0.2030     7.4790 hc         1 JPN       0.046200
     39 H4           4.9760    -1.5290     8.2890 ha         1 JPN       0.109500
     40 H5           6.8280    -1.6700     9.9430 ha         1 JPN       0.112000
     41 H6           7.6680     0.3960    11.0590 ha         1 JPN       0.113000
     42 H1           6.6510     2.6060    10.5140 ha         1 JPN       0.112000
     43 H2           4.7990     2.7540     8.8610 ha         1 JPN       0.109500
@<TRIPOS>BOND
     1     1     2 1   
     2     2     3 ar  
     3     2     4 ar  
     4     3     7 ar  
     5     3    26 1   
     6     4     5 ar  
     7     4     9 1   
     8     5     6 ar  
     9     5    27 1   
    10     6     7 ar  
    11     6    28 1   
    12     7     8 1   
    13     9    10 1   
    14    10    11 ar  
    15    10    15 ar  
    16    11    12 ar  
    17    11    29 1   
    18    12    13 ar  
    19    12    30 1   
    20    13    14 ar  
    21    13    17 1   
    22    14    15 ar  
    23    14    31 1   
    24    15    16 1   
    25    16    32 1   
    26    17    18 1   
    27    17    33 1   
    28    17    34 1   
    29    18    19 1   
    30    18    35 1   
    31    18    36 1   
    32    19    20 1   
    33    19    37 1   
    34    19    38 1   
    35    20    21 ar  
    36    20    25 ar  
    37    21    22 ar  
    38    21    39 1   
    39    22    23 ar  
    40    22    40 1   
    41    23    24 ar  
    42    23    41 1   
    43    24    25 ar  
    44    24    42 1   
    45    25    43 1   
@<TRIPOS>SUBSTRUCTURE
     1 JPN         1 TEMP              0 ****  ****    0 ROOT
