@<TRIPOS>MOLECULE
JPN
   43    45     1     0     0
SMALL
abcg2


@<TRIPOS>ATOM
      1 CL24         5.3360     3.2840    -2.8500 cl         1 JPN      -0.173000
      2 C18          6.5700     3.0660    -1.6650 ca         1 JPN       0.090000
      3 C19          7.8720     3.4340    -1.9560 ca         1 JPN      -0.067000
      4 C17          6.2340     2.5180    -0.4270 ca         1 JPN       0.156100
      5 C22          7.2330     2.3430     0.5200 ca         1 JPN      -0.168000
      6 C21          8.5410     2.7090     0.2420 ca         1 JPN      -0.068000
      7 C20          8.8510     3.2530    -0.9920 ca         1 JPN       0.089000
      8 CL25        10.4820     3.7130    -1.3480 cl         1 JPN      -0.198000
      9 O16          4.9420     2.1690    -0.2450 os         1 JPN      -0.216200
     10 C13          4.5140     1.8400     1.0200 ca         1 JPN       0.048100
     11 C14          4.2620     0.5220     1.3440 ca         1 JPN      -0.071000
     12 C15          3.7670     0.1980     2.6000 ca         1 JPN      -0.138000
     13 C10          3.5270     1.1930     3.5410 ca         1 JPN      -0.029300
     14 C11          3.7890     2.5190     3.2020 ca         1 JPN      -0.199000
     15 C12          4.2820     2.8570     1.9480 ca         1 JPN       0.133100
     16 O23          4.5560     4.1160     1.5670 oh         1 JPN      -0.514100
     17 C9           3.0380     0.8510     4.9200 c3         1 JPN      -0.037100
     18 C8           4.1620     0.8880     5.9550 c3         1 JPN      -0.072400
     19 C7           3.6790     0.4960     7.3520 c3         1 JPN      -0.031100
     20 C3           4.7850     0.5700     8.3670 ca         1 JPN      -0.080300
     21 C4           5.5900    -0.5370     8.6290 ca         1 JPN      -0.107000
     22 C5           6.6440    -0.4550     9.5300 ca         1 JPN      -0.108000
     23 C6           6.9090     0.7410    10.1870 ca         1 JPN      -0.110000
     24 C1           6.1120     1.8500     9.9350 ca         1 JPN      -0.108000
     25 C2           5.0610     1.7630     9.0320 ca         1 JPN      -0.107000
     26 H19          8.1120     3.8590    -2.9200 ha         1 JPN       0.144000
     27 H22          7.0020     1.9120     1.4850 ha         1 JPN       0.131000
     28 H21          9.3080     2.5660     0.9910 ha         1 JPN       0.131000
     29 H14          4.4440    -0.2510     0.6070 ha         1 JPN       0.134000
     30 H15          3.5700    -0.8380     2.8470 ha         1 JPN       0.121000
     31 H11          3.6050     3.3050     3.9280 ha         1 JPN       0.117000
     32 HO23         4.3610     4.7330     2.2820 ho         1 JPN       0.468000
     33 H91          2.5880    -0.1460     4.9100 hc         1 JPN       0.050200
     34 H92          2.2480     1.5450     5.2210 hc         1 JPN       0.050200
     35 H81          4.9670     0.2160     5.6450 hc         1 JPN       0.046700
     36 H82          4.5940     1.8930     5.9900 hc         1 JPN       0.046700
     37 H71          2.8590     1.1560     7.6480 hc         1 JPN       0.046200
     38 H72          3.2690    -0.5170     7.3200 hc         1 JPN       0.046200
     39 H4           5.3890    -1.4750     8.1240 ha         1 JPN       0.109500
     40 H5           7.2560    -1.3260     9.7230 ha         1 JPN       0.112000
     41 H6           7.7280     0.8050    10.8910 ha         1 JPN       0.113000
     42 H1           6.3070     2.7850    10.4450 ha         1 JPN       0.112000
     43 H2           4.4420     2.6330     8.8420 ha         1 JPN       0.109500
@<TRIPOS>BOND
     1     1     2 1   
     2     2     3 ar  
     3     2     4 ar  
     4     3     7 ar  
     5     3    26 1   
     6     4     5 ar  
     7     4     9 1   
     8     5     6 ar  
     9     5    27 1   
    10     6     7 ar  
    11     6    28 1   
    12     7     8 1   
    13     9    10 1   
    14    10    11 ar  
    15    10    15 ar  
    16    11    12 ar  
    17    11    29 1   
    18    12    13 ar  
    19    12    30 1   
    20    13    14 ar  
    21    13    17 1   
    22    14    15 ar  
    23    14    31 1   
    24    15    16 1   
    25    16    32 1   
    26    17    18 1   
    27    17    33 1   
    28    17    34 1   
    29    18    19 1   
    30    18    35 1   
    31    18    36 1   
    32    19    20 1   
    33    19    37 1   
    34    19    38 1   
    35    20    21 ar  
    36    20    25 ar  
    37    21    22 ar  
    38    21    39 1   
    39    22    23 ar  
    40    22    40 1   
    41    23    24 ar  
    42    23    41 1   
    43    24    25 ar  
    44    24    42 1   
    45    25    43 1   
@<TRIPOS>SUBSTRUCTURE
     1 JPN         1 TEMP              0 ****  ****    0 ROOT
