@<TRIPOS>MOLECULE
JPO
   44    46     1     0     0
SMALL
No Charge or Current Charge


@<TRIPOS>ATOM
      1 C1         -22.1290   -35.0070   -26.4000 c          1 JPO       0.634100
      2 C2         -20.6840   -35.1580   -22.5460 c3         1 JPO       0.218600
      3 C3         -19.4090   -35.3630   -21.6740 c5         1 JPO       0.134300
      4 C4         -17.2010   -36.1640   -21.6910 c5         1 JPO       0.276300
      5 C5         -15.7490   -35.1890   -23.5570 cc         1 JPO       0.414700
      6 C6         -14.7990   -36.9900   -24.2530 ca         1 JPO      -0.102600
      7 O1         -20.3130   -36.9540   -24.7690 o          1 JPO      -0.538500
      8 O2         -18.4630   -35.2890   -25.3550 o          1 JPO      -0.538500
      9 O3         -20.3520   -34.5810   -23.8320 os         1 JPO      -0.591700
     10 O4         -18.5320   -36.3690   -22.2260 os         1 JPO      -0.440000
     11 O5         -17.4650   -35.0050   -19.4630 oh         1 JPO      -0.687000
     12 O6         -18.9990   -33.1230   -20.6360 oh         1 JPO      -0.682000
     13 S          -19.8630   -35.5840   -25.0390 s6         1 JPO       1.445500
     14 C8         -14.9830   -39.5570   -23.5680 ca         1 JPO       0.287000
     15 N5         -14.1170   -39.2670   -24.5670 nb         1 JPO      -0.293000
     16 C7         -14.0300   -37.9730   -24.9100 ca         1 JPO       0.465900
     17 N4         -13.1590   -37.6730   -25.9100 nv         1 JPO      -1.054900
     18 N6         -15.7600   -38.6840   -22.8840 nb         1 JPO      -0.208000
     19 C9         -15.6460   -37.3940   -23.2530 ca         1 JPO       0.145500
     20 N3         -14.8400   -35.6080   -24.4580 nd         1 JPO      -0.533100
     21 N2         -16.2480   -36.2550   -22.7980 na         1 JPO      -0.299300
     22 C10        -17.2420   -34.8090   -20.8780 c5         1 JPO       0.091300
     23 C11        -18.4830   -34.1220   -21.5200 c5         1 JPO       0.151300
     24 N1         -20.7810   -34.9410   -26.2570 ns         1 JPO      -0.613300
     25 O          -22.8520   -35.6160   -25.6220 o          1 JPO      -0.535100
     26 C          -22.6840   -34.2420   -27.6510 c3         1 JPO       0.073800
     27 N          -24.1620   -33.9420   -27.6990 n8         1 JPO      -0.979200
     28 H1         -21.3370   -34.4660   -21.9980 h1         1 JPO       0.092700
     29 H2         -21.2380   -36.1030   -22.6330 h1         1 JPO       0.092700
     30 H3         -19.7410   -35.7110   -20.6860 h1         1 JPO       0.092700
     31 H4         -16.9460   -36.9880   -21.0130 h2         1 JPO       0.112700
     32 H5         -16.0670   -34.1640   -23.4080 h5         1 JPO       0.069800
     33 H6         -16.6210   -35.3270   -19.0640 ho         1 JPO       0.513000
     34 H7         -18.6760   -33.4220   -19.7490 ho         1 JPO       0.515000
     35 H8         -12.4360   -38.3520   -26.1320 hn         1 JPO       0.510000
     36 H9         -12.9190   -36.6920   -26.0340 hn         1 JPO       0.510000
     37 H10        -16.3320   -34.2140   -21.0370 h1         1 JPO       0.060700
     38 H11        -18.2400   -33.6890   -22.5000 h1         1 JPO       0.055700
     39 H12        -20.2240   -34.4010   -26.8930 hn         1 JPO       0.348500
     40 H13        -22.4170   -34.8390   -28.5340 h1         1 JPO       0.051200
     41 H14        -22.1400   -33.2900   -27.7230 h1         1 JPO       0.051200
     42 H15        -24.4070   -33.5490   -28.6180 hn         1 JPO       0.408000
     43 H16        -24.6910   -34.8240   -27.6630 hn         1 JPO       0.408000
     44 Cl         -15.1100   -41.2470   -23.1080 cl         1 JPO      -0.135000
@<TRIPOS>BOND
     1     1    24 1   
     2     1    25 2   
     3     1    26 1   
     4     2     3 1   
     5     2     9 1   
     6     2    28 1   
     7     2    29 1   
     8     3    10 1   
     9     3    23 1   
    10     3    30 1   
    11     4    10 1   
    12     4    21 1   
    13     4    22 1   
    14     4    31 1   
    15     5    20 2   
    16     5    21 1   
    17     5    32 1   
    18     6    16 ar  
    19     6    19 ar  
    20     6    20 1   
    21     7    13 2   
    22     8    13 2   
    23     9    13 1   
    24    11    22 1   
    25    11    33 1   
    26    12    23 1   
    27    12    34 1   
    28    13    24 1   
    29    14    15 ar  
    30    14    18 ar  
    31    14    44 1   
    32    15    16 ar  
    33    16    17 1   
    34    17    35 1   
    35    17    36 1   
    36    18    19 ar  
    37    19    21 1   
    38    22    23 1   
    39    22    37 1   
    40    23    38 1   
    41    24    39 1   
    42    26    27 1   
    43    26    40 1   
    44    26    41 1   
    45    27    42 1   
    46    27    43 1   
@<TRIPOS>SUBSTRUCTURE
     1 JPO         1 TEMP              0 ****  ****    0 ROOT
