@<TRIPOS>MOLECULE
JPO
   44    46     1     0     0
SMALL
abcg2


@<TRIPOS>ATOM
      1 C1         -22.0700   -34.7240   -26.2950 c          1 JPO       0.634100
      2 C2         -20.5130   -34.9800   -22.8220 c3         1 JPO       0.218600
      3 C3         -19.4490   -35.3730   -21.8300 c5         1 JPO       0.134300
      4 C4         -17.3530   -36.3580   -21.7540 c5         1 JPO       0.276300
      5 C5         -15.9070   -35.3450   -23.5780 cc         1 JPO       0.414700
      6 C6         -14.7950   -37.0330   -24.1820 ca         1 JPO      -0.102600
      7 O1         -19.8700   -36.5680   -25.1290 o          1 JPO      -0.538500
      8 O2         -18.3330   -34.6940   -25.7680 o          1 JPO      -0.538500
      9 O3         -19.9610   -34.3520   -23.9950 os         1 JPO      -0.591700
     10 O4         -18.6220   -36.3880   -22.3640 os         1 JPO      -0.440000
     11 O5         -17.6600   -35.4680   -19.5210 oh         1 JPO      -0.687000
     12 O6         -19.0850   -33.3970   -20.5240 oh         1 JPO      -0.682000
     13 S          -19.6150   -35.1640   -25.3140 s6         1 JPO       1.445500
     14 C8         -14.8420   -39.4990   -23.2810 ca         1 JPO       0.287000
     15 N5         -13.9960   -39.2450   -24.2580 nb         1 JPO      -0.293000
     16 C7         -13.9390   -37.9980   -24.7460 ca         1 JPO       0.465900
     17 N4         -13.0950   -37.7310   -25.7380 nv         1 JPO      -1.054900
     18 N6         -15.6850   -38.7060   -22.6670 nb         1 JPO      -0.208000
     19 C9         -15.6200   -37.4690   -23.1600 ca         1 JPO       0.145500
     20 N3         -14.9920   -35.7000   -24.4270 nd         1 JPO      -0.533100
     21 N2         -16.3290   -36.3710   -22.7700 na         1 JPO      -0.299300
     22 C10        -17.3240   -35.1180   -20.8320 c5         1 JPO       0.091300
     23 C11        -18.4730   -34.2800   -21.4080 c5         1 JPO       0.151300
     24 N1         -20.7070   -34.5330   -26.3980 ns         1 JPO      -0.613300
     25 O          -22.5640   -35.2710   -25.3390 o          1 JPO      -0.535100
     26 C          -22.8420   -34.2050   -27.4880 c3         1 JPO       0.073800
     27 N          -24.2610   -34.3880   -27.3120 n8         1 JPO      -0.979200
     28 H1         -21.1590   -34.2270   -22.3730 h1         1 JPO       0.092700
     29 H2         -21.1330   -35.8350   -23.0900 h1         1 JPO       0.092700
     30 H3         -19.9910   -35.7330   -20.9430 h1         1 JPO       0.092700
     31 H4         -17.1950   -37.2640   -21.1630 h2         1 JPO       0.112700
     32 H5         -16.3080   -34.3470   -23.4910 h5         1 JPO       0.069800
     33 H6         -16.9230   -35.9480   -19.1300 ho         1 JPO       0.513000
     34 H7         -18.5340   -32.6130   -20.4340 ho         1 JPO       0.515000
     35 H8         -12.4610   -38.4380   -26.0690 hn         1 JPO       0.510000
     36 H9         -12.9820   -36.7930   -26.0830 hn         1 JPO       0.510000
     37 H10        -16.3570   -34.6040   -20.8790 h1         1 JPO       0.060700
     38 H11        -18.1040   -33.7640   -22.3040 h1         1 JPO       0.055700
     39 H12        -20.3100   -34.0230   -27.1790 hn         1 JPO       0.348500
     40 H13        -22.4140   -34.6780   -28.3830 h1         1 JPO       0.051200
     41 H14        -22.6240   -33.1380   -27.5850 h1         1 JPO       0.051200
     42 H15        -24.7480   -33.8710   -28.0310 hn         1 JPO       0.408000
     43 H16        -24.5060   -35.3600   -27.4480 hn         1 JPO       0.408000
     44 CL         -14.8350   -41.1440   -22.7240 cl         1 JPO      -0.135000
@<TRIPOS>BOND
     1     1    24 1   
     2     1    25 2   
     3     1    26 1   
     4     2     3 1   
     5     2     9 1   
     6     2    28 1   
     7     2    29 1   
     8     3    10 1   
     9     3    23 1   
    10     3    30 1   
    11     4    10 1   
    12     4    21 1   
    13     4    22 1   
    14     4    31 1   
    15     5    20 2   
    16     5    21 1   
    17     5    32 1   
    18     6    16 ar  
    19     6    19 ar  
    20     6    20 1   
    21     7    13 2   
    22     8    13 2   
    23     9    13 1   
    24    11    22 1   
    25    11    33 1   
    26    12    23 1   
    27    12    34 1   
    28    13    24 1   
    29    14    15 ar  
    30    14    18 ar  
    31    14    44 1   
    32    15    16 ar  
    33    16    17 1   
    34    17    35 1   
    35    17    36 1   
    36    18    19 ar  
    37    19    21 1   
    38    22    23 1   
    39    22    37 1   
    40    23    38 1   
    41    24    39 1   
    42    26    27 1   
    43    26    40 1   
    44    26    41 1   
    45    27    42 1   
    46    27    43 1   
@<TRIPOS>SUBSTRUCTURE
     1 JPO         1 TEMP              0 ****  ****    0 ROOT
