@<TRIPOS>MOLECULE
JPP
   64    66     1     0     0
SMALL
No Charge or Current Charge


@<TRIPOS>ATOM
      1 S           -5.6440     5.3640    24.7160 ss         1 JPP      -0.585000
      2 O01         -2.7950     3.0290    21.0520 o          1 JPP      -0.521100
      3 O02         -8.1470     6.0610    20.7500 o          1 JPP      -0.718000
      4 O03         -6.8710     7.7640    20.5790 o          1 JPP      -0.718000
      5 O06         -1.5210     5.4420    24.3300 o          1 JPP      -0.614100
      6 O04          0.7220     8.6190    21.3680 o          1 JPP      -0.622100
      7 O05          1.5790     7.4400    25.2320 o          1 JPP      -0.483000
      8 O            3.7190     8.8260    26.5310 o          1 JPP      -0.513000
      9 N02         -6.0670     4.5730    22.1920 n7         1 JPP      -0.860400
     10 N03         -3.0500     5.3070    22.6440 ns         1 JPP      -0.455900
     11 N04         -0.0790     7.5040    23.1500 ns         1 JPP      -0.486900
     12 N01          2.0840     8.5030    23.2250 n          1 JPP      -0.391400
     13 N            4.6670     9.2630    24.4800 n          1 JPP      -0.411800
     14 C17         -5.2580     4.1580    23.3570 c5         1 JPP       0.349500
     15 C19         -6.6450     6.4790    23.6230 c5         1 JPP       0.140000
     16 C18         -6.1800     6.0830    22.1850 c5         1 JPP       0.028500
     17 C20         -3.7320     4.0550    23.0790 c3         1 JPP       0.005700
     18 C01         -3.4840     2.9200    22.0660 c          1 JPP       0.570900
     19 C02         -8.1440     6.2200    23.9370 c3         1 JPP      -0.071600
     20 C03         -6.2980     7.9410    23.9860 c3         1 JPP      -0.071600
     21 C04         -7.1690     6.7040    21.1130 c          1 JPP       0.720000
     22 C21         -1.9810     5.8960    23.2880 c          1 JPP       0.603100
     23 CA          -1.3980     7.1570    22.5840 c3         1 JPP       0.098000
     24 C05         -2.3570     8.3460    22.6640 ca         1 JPP      -0.113300
     25 C07         -3.1100     8.7260    21.5350 ca         1 JPP      -0.081000
     26 C08         -2.4860     9.0880    23.8590 ca         1 JPP      -0.081000
     27 C09          3.1220     9.3070    22.5020 c6         1 JPP       0.087000
     28 C10          4.5660     9.1140    23.0190 c6         1 JPP       0.087000
     29 C11          2.3350     8.1630    24.5870 c          1 JPP       0.491000
     30 C12         -3.9770     9.8310    21.5980 ca         1 JPP      -0.105500
     31 C13         -3.3460    10.1980    23.9170 ca         1 JPP      -0.105500
     32 C14          3.6320     8.7760    25.3060 c          1 JPP       0.491000
     33 C15          5.8910     9.8730    25.0490 c3         1 JPP       0.101000
     34 C16         -4.0920    10.5700    22.7870 ca         1 JPP      -0.107000
     35 C            7.0730     8.8900    25.1010 c3         1 JPP      -0.115100
     36 H2          -7.0170     4.2000    22.3140 hn         1 JPP       0.456000
     37 H4          -3.3650     5.7440    21.7860 hn         1 JPP       0.342500
     38 H5           0.1460     7.1820    24.0880 hn         1 JPP       0.378500
     39 H6          -5.5910     3.1660    23.6930 h2         1 JPP       0.054700
     40 H7          -5.2000     6.5310    21.9820 h1         1 JPP       0.064700
     41 H8          -3.2760     3.7100    24.0140 h1         1 JPP       0.101700
     42 H9          -3.9740     1.9520    22.3130 h4         1 JPP      -0.017800
     43 H10         -8.3580     6.3840    25.0000 hc         1 JPP       0.041367
     44 H11         -8.7970     6.8920    23.3680 hc         1 JPP       0.041367
     45 H12         -8.4350     5.1900    23.7010 hc         1 JPP       0.041367
     46 H13         -6.5520     8.1670    25.0280 hc         1 JPP       0.041367
     47 H14         -5.2260     8.1230    23.8620 hc         1 JPP       0.041367
     48 H15         -6.8350     8.6530    23.3480 hc         1 JPP       0.041367
     49 H16         -1.2540     6.8820    21.5310 h1         1 JPP       0.081700
     50 H17         -3.0230     8.1720    20.6030 ha         1 JPP       0.119000
     51 H18         -1.9160     8.8090    24.7430 ha         1 JPP       0.119000
     52 H19          2.8570    10.3700    22.5860 h1         1 JPP       0.078700
     53 H20          3.1200     9.0600    21.4300 h1         1 JPP       0.078700
     54 H21          4.9130     8.1070    22.7460 h1         1 JPP       0.057200
     55 H22          5.2290     9.8340    22.5180 h1         1 JPP       0.057200
     56 H23         -4.5570    10.1160    20.7230 ha         1 JPP       0.117000
     57 H24         -3.4360    10.7670    24.8400 ha         1 JPP       0.117000
     58 H25          6.1740    10.7380    24.4340 h1         1 JPP       0.059200
     59 H26          5.6900    10.2520    26.0590 h1         1 JPP       0.059200
     60 H27         -4.7610    11.4270    22.8340 ha         1 JPP       0.106000
     61 H28          7.9560     9.3790    25.5280 hc         1 JPP       0.043033
     62 H29          6.8240     8.0230    25.7240 hc         1 JPP       0.043033
     63 H30          7.3280     8.5350    24.0960 hc         1 JPP       0.043033
     64 C06          0.8920     8.2290    22.5130 c          1 JPP       0.654100
@<TRIPOS>BOND
     1     1    14 1   
     2     1    15 1   
     3     2    18 2   
     4     3    21 1   
     5     4    21 1   
     6     5    22 2   
     7     6    64 2   
     8     7    29 2   
     9     8    32 2   
    10     9    14 1   
    11     9    16 1   
    12     9    36 1   
    13    10    17 1   
    14    10    22 1   
    15    10    37 1   
    16    11    23 1   
    17    11    38 1   
    18    11    64 1   
    19    12    27 1   
    20    12    29 1   
    21    12    64 1   
    22    13    28 1   
    23    13    32 1   
    24    13    33 1   
    25    14    17 1   
    26    14    39 1   
    27    15    16 1   
    28    15    19 1   
    29    15    20 1   
    30    16    21 1   
    31    16    40 1   
    32    17    18 1   
    33    17    41 1   
    34    18    42 1   
    35    19    43 1   
    36    19    44 1   
    37    19    45 1   
    38    20    46 1   
    39    20    47 1   
    40    20    48 1   
    41    22    23 1   
    42    23    24 1   
    43    23    49 1   
    44    24    25 ar  
    45    24    26 ar  
    46    25    30 ar  
    47    25    50 1   
    48    26    31 ar  
    49    26    51 1   
    50    27    28 1   
    51    27    52 1   
    52    27    53 1   
    53    28    54 1   
    54    28    55 1   
    55    29    32 1   
    56    30    34 ar  
    57    30    56 1   
    58    31    34 ar  
    59    31    57 1   
    60    33    35 1   
    61    33    58 1   
    62    33    59 1   
    63    34    60 1   
    64    35    61 1   
    65    35    62 1   
    66    35    63 1   
@<TRIPOS>SUBSTRUCTURE
     1 JPP         1 TEMP              0 ****  ****    0 ROOT
