@<TRIPOS>MOLECULE
JPP
   64    66     1     0     0
SMALL
abcg2


@<TRIPOS>ATOM
      1 S           -5.5390     5.5180    24.6650 ss         1 JPP      -0.585000
      2 O01         -2.3210     2.9250    21.6190 o          1 JPP      -0.521100
      3 O02         -7.5740     5.5020    20.4480 o          1 JPP      -0.718000
      4 O03         -7.0790     7.6820    20.6420 o          1 JPP      -0.718000
      5 O06         -1.6550     5.8990    24.6300 o          1 JPP      -0.614100
      6 O04          0.5360     8.9210    21.5340 o          1 JPP      -0.622100
      7 O05          1.5310     7.6410    25.3110 o          1 JPP      -0.483000
      8 O            3.6980     8.8120    26.4330 o          1 JPP      -0.513000
      9 N02         -5.5820     4.7650    22.0900 n7         1 JPP      -0.860400
     10 N03         -2.8530     5.3620    22.7760 ns         1 JPP      -0.455900
     11 N04         -0.1280     7.6080    23.2570 ns         1 JPP      -0.486900
     12 N01          1.9670     8.6860    23.3130 n          1 JPP      -0.391400
     13 N            4.5580     9.1850    24.3580 n          1 JPP      -0.411800
     14 C17         -5.0340     4.3120    23.3500 c5         1 JPP       0.349500
     15 C19         -6.6250     6.4810    23.5170 c5         1 JPP       0.140000
     16 C18         -5.9930     6.1650    22.1250 c5         1 JPP       0.028500
     17 C20         -3.4950     4.1910    23.3080 c3         1 JPP       0.005700
     18 C01         -3.1100     2.9470    22.5320 c          1 JPP       0.570900
     19 C02         -8.0680     5.9910    23.6390 c3         1 JPP      -0.071600
     20 C03         -6.5220     7.9600    23.8740 c3         1 JPP      -0.071600
     21 C04         -6.9660     6.4730    20.9600 c          1 JPP       0.720000
     22 C21         -1.9850     6.1150    23.4680 c          1 JPP       0.603100
     23 CA          -1.4310     7.3230    22.6970 c3         1 JPP       0.098000
     24 C05         -2.3920     8.4990    22.7910 ca         1 JPP      -0.113300
     25 C07         -3.1740     8.8520    21.6950 ca         1 JPP      -0.081000
     26 C08         -2.4920     9.2380    23.9690 ca         1 JPP      -0.081000
     27 C09          2.9350     9.5230    22.5830 c6         1 JPP       0.087000
     28 C10          4.3400     9.0950    22.9170 c6         1 JPP       0.087000
     29 C11          2.2520     8.3220    24.6000 c          1 JPP       0.491000
     30 C12         -4.0410     9.9370    21.7690 ca         1 JPP      -0.105500
     31 C13         -3.3580    10.3220    24.0440 ca         1 JPP      -0.105500
     32 C14          3.5930     8.8180    25.2120 c          1 JPP       0.491000
     33 C15          5.9000     9.5040    24.8500 c3         1 JPP       0.101000
     34 C16         -4.1330    10.6760    22.9420 ca         1 JPP      -0.107000
     35 C            6.8360     8.3010    24.7960 c3         1 JPP      -0.115100
     36 H2          -6.3900     4.2180    21.8150 hn         1 JPP       0.456000
     37 H4          -3.0220     5.5770    21.8040 hn         1 JPP       0.342500
     38 H5           0.0890     7.2740    24.1900 hn         1 JPP       0.378500
     39 H6          -5.4360     3.3300    23.5990 h2         1 JPP       0.054700
     40 H7          -5.1230     6.8120    22.0170 h1         1 JPP       0.064700
     41 H8          -3.1310     4.0350    24.3280 h1         1 JPP       0.101700
     42 H9          -3.6150     2.0260    22.8750 h4         1 JPP      -0.017800
     43 H10         -8.4200     6.1140    24.6630 hc         1 JPP       0.041367
     44 H11         -8.7200     6.5700    22.9810 hc         1 JPP       0.041367
     45 H12         -8.1580     4.9380    23.3700 hc         1 JPP       0.041367
     46 H13         -6.8740     8.1390    24.8920 hc         1 JPP       0.041367
     47 H14         -5.4960     8.3120    23.7920 hc         1 JPP       0.041367
     48 H15         -7.1420     8.5420    23.1910 hc         1 JPP       0.041367
     49 H16         -1.3200     7.0520    21.6470 h1         1 JPP       0.081700
     50 H17         -3.0950     8.2820    20.7770 ha         1 JPP       0.119000
     51 H18         -1.8840     8.9720    24.8250 ha         1 JPP       0.119000
     52 H19          2.7780    10.5720    22.8390 h1         1 JPP       0.078700
     53 H20          2.7470     9.3950    21.5230 h1         1 JPP       0.078700
     54 H21          4.5340     8.0800    22.5590 h1         1 JPP       0.057200
     55 H22          5.0420     9.7680    22.4270 h1         1 JPP       0.057200
     56 H23         -4.6450    10.2020    20.9100 ha         1 JPP       0.117000
     57 H24         -3.4290    10.8910    24.9620 ha         1 JPP       0.117000
     58 H25          6.2830    10.3200    24.2370 h1         1 JPP       0.059200
     59 H26          5.7960     9.8640    25.8710 h1         1 JPP       0.059200
     60 H27         -4.8060    11.5220    23.0010 ha         1 JPP       0.106000
     61 H28          7.8220     8.5850    25.1660 hc         1 JPP       0.043033
     62 H29          6.4540     7.4890    25.4160 hc         1 JPP       0.043033
     63 H30          6.9480     7.9340    23.7740 hc         1 JPP       0.043033
     64 C06          0.7340     8.4190    22.6320 c          1 JPP       0.654100
@<TRIPOS>BOND
     1     1    14 1   
     2     1    15 1   
     3     2    18 2   
     4     3    21 1   
     5     4    21 1   
     6     5    22 2   
     7     6    64 2   
     8     7    29 2   
     9     8    32 2   
    10     9    14 1   
    11     9    16 1   
    12     9    36 1   
    13    10    17 1   
    14    10    22 1   
    15    10    37 1   
    16    11    23 1   
    17    11    38 1   
    18    11    64 1   
    19    12    27 1   
    20    12    29 1   
    21    12    64 1   
    22    13    28 1   
    23    13    32 1   
    24    13    33 1   
    25    14    17 1   
    26    14    39 1   
    27    15    16 1   
    28    15    19 1   
    29    15    20 1   
    30    16    21 1   
    31    16    40 1   
    32    17    18 1   
    33    17    41 1   
    34    18    42 1   
    35    19    43 1   
    36    19    44 1   
    37    19    45 1   
    38    20    46 1   
    39    20    47 1   
    40    20    48 1   
    41    22    23 1   
    42    23    24 1   
    43    23    49 1   
    44    24    25 ar  
    45    24    26 ar  
    46    25    30 ar  
    47    25    50 1   
    48    26    31 ar  
    49    26    51 1   
    50    27    28 1   
    51    27    52 1   
    52    27    53 1   
    53    28    54 1   
    54    28    55 1   
    55    29    32 1   
    56    30    34 ar  
    57    30    56 1   
    58    31    34 ar  
    59    31    57 1   
    60    33    35 1   
    61    33    58 1   
    62    33    59 1   
    63    34    60 1   
    64    35    61 1   
    65    35    62 1   
    66    35    63 1   
@<TRIPOS>SUBSTRUCTURE
     1 JPP         1 TEMP              0 ****  ****    0 ROOT
