@<TRIPOS>MOLECULE
JPQ
   26    26     1     0     0
SMALL
No Charge or Current Charge


@<TRIPOS>ATOM
      1 C4          -1.2550     0.5400     0.0060 c5         1 JPQ       0.024700
      2 C5           1.2000     0.4170    -0.1050 c          1 JPQ       0.626300
      3 C6           2.4330    -0.0290     0.6020 ce         1 JPQ      -0.323200
      4 C7           3.6180    -0.3640     0.0330 c2         1 JPQ      -0.004400
      5 C8           4.8030    -0.8390     0.8560 c3         1 JPQ      -0.075900
      6 C9           3.9330    -0.3060    -1.4530 c3         1 JPQ      -0.075900
      7 N1          -3.3570    -0.1670     0.5240 ns         1 JPQ      -0.484500
      8 N2           0.0480     0.1820     0.6150 ns         1 JPQ      -0.498900
      9 C3          -1.6750    -0.6390    -0.9350 c5         1 JPQ      -0.185400
     10 O1          -2.3700     1.0180     2.2230 o          1 JPQ      -0.481000
     11 C1          -2.3480     0.5260     1.1060 c          1 JPQ       0.544000
     12 C2          -3.1800    -0.7760    -0.6740 c          1 JPQ       0.572000
     13 O2          -4.0840    -1.1260    -1.4140 o          1 JPQ      -0.497000
     14 O3           1.1920     0.8910    -1.2320 o          1 JPQ      -0.596100
     15 H1          -1.2790     1.5200    -0.4930 h1         1 JPQ       0.119700
     16 H2           2.3110    -0.1670     1.6740 ha         1 JPQ       0.173000
     17 H3           5.0880    -1.8620     0.5840 hc         1 JPQ       0.053533
     18 H4           5.6760    -0.1940     0.6990 hc         1 JPQ       0.053533
     19 H5           4.5820    -0.8350     1.9290 hc         1 JPQ       0.053533
     20 H6           3.1180    -0.7280    -2.0520 hc         1 JPQ       0.053533
     21 H7           4.0920     0.7290    -1.7780 hc         1 JPQ       0.053533
     22 H8           4.8370    -0.8730    -1.7070 hc         1 JPQ       0.053533
     23 H9          -4.2650    -0.1880     0.9640 hn         1 JPQ       0.343500
     24 H10          0.1520    -0.2220     1.5390 hn         1 JPQ       0.315500
     25 H11         -1.4560    -0.5100    -2.0000 hc         1 JPQ       0.090200
     26 H12         -1.2170    -1.5750    -0.5940 hc         1 JPQ       0.090200
@<TRIPOS>BOND
     1     1     8 1   
     2     1     9 1   
     3     1    11 1   
     4     1    15 1   
     5     2     3 1   
     6     2     8 1   
     7     2    14 2   
     8     3     4 2   
     9     3    16 1   
    10     4     5 1   
    11     4     6 1   
    12     5    17 1   
    13     5    18 1   
    14     5    19 1   
    15     6    20 1   
    16     6    21 1   
    17     6    22 1   
    18     7    11 1   
    19     7    12 1   
    20     7    23 1   
    21     8    24 1   
    22     9    12 1   
    23     9    25 1   
    24     9    26 1   
    25    10    11 2   
    26    12    13 2   
@<TRIPOS>SUBSTRUCTURE
     1 JPQ         1 TEMP              0 ****  ****    0 ROOT
