@<TRIPOS>MOLECULE
JPQ
   26    26     1     0     0
SMALL
bcc


@<TRIPOS>ATOM
      1 C4          -1.2190    -0.0750    -0.4260 c5         1 JPQ       0.024700
      2 C5           1.2310     0.0390    -0.3700 c          1 JPQ       0.693300
      3 C6           2.4030    -0.5040     0.3420 ce         1 JPQ      -0.273200
      4 C7           3.6950    -0.2710     0.0690 c2         1 JPQ      -0.004400
      5 C8           4.7490    -0.8860     0.9370 c3         1 JPQ      -0.075900
      6 C9           4.2290     0.5870    -1.0350 c3         1 JPQ      -0.075900
      7 N1          -3.2620     0.5070     0.5350 ns         1 JPQ      -0.618500
      8 N2           0.0570    -0.4870     0.0650 ns         1 JPQ      -0.565900
      9 C3          -2.2240    -1.2020    -0.6570 c5         1 JPQ      -0.185400
     10 O1          -1.4540     1.7810     1.1510 o          1 JPQ      -0.556500
     11 C1          -1.9400     0.8720     0.5300 c          1 JPQ       0.686500
     12 C2          -3.5350    -0.6530    -0.1530 c          1 JPQ       0.714500
     13 O2          -4.6330    -1.1300    -0.2880 o          1 JPQ      -0.572500
     14 O3           1.2710     0.8730    -1.2660 o          1 JPQ      -0.596100
     15 H1          -1.0640     0.4820    -1.3530 h1         1 JPQ       0.119700
     16 H2           2.1820    -1.1560     1.1810 ha         1 JPQ       0.123000
     17 H3           5.4110    -1.5210     0.3430 hc         1 JPQ       0.053533
     18 H4           5.3800    -0.1080     1.3750 hc         1 JPQ       0.053533
     19 H5           4.3310    -1.4830     1.7460 hc         1 JPQ       0.053533
     20 H6           3.5360     0.7190    -1.8580 hc         1 JPQ       0.053533
     21 H7           4.4750     1.5770    -0.6420 hc         1 JPQ       0.053533
     22 H8           5.1610     0.1660    -1.4160 hc         1 JPQ       0.053533
     23 H9          -3.9750     1.0260     1.0330 hn         1 JPQ       0.343500
     24 H10          0.0700    -1.1330     0.8390 hn         1 JPQ       0.315500
     25 H11         -2.3020    -1.5110    -1.6980 hc         1 JPQ       0.090200
     26 H12         -1.9760    -2.0890    -0.0680 hc         1 JPQ       0.090200
@<TRIPOS>BOND
     1     1     8 1   
     2     1     9 1   
     3     1    11 1   
     4     1    15 1   
     5     2     3 1   
     6     2     8 1   
     7     2    14 2   
     8     3     4 2   
     9     3    16 1   
    10     4     5 1   
    11     4     6 1   
    12     5    17 1   
    13     5    18 1   
    14     5    19 1   
    15     6    20 1   
    16     6    21 1   
    17     6    22 1   
    18     7    11 1   
    19     7    12 1   
    20     7    23 1   
    21     8    24 1   
    22     9    12 1   
    23     9    25 1   
    24     9    26 1   
    25    10    11 2   
    26    12    13 2   
@<TRIPOS>SUBSTRUCTURE
     1 JPQ         1 TEMP              0 ****  ****    0 ROOT
