@<TRIPOS>MOLECULE
JPR
   49    50     1     0     0
SMALL
No Charge or Current Charge


@<TRIPOS>ATOM
      1 Cl1          6.1380     2.7580     1.4330 cl         1 JPR      -0.206000
      2 N1           3.7750    -1.3490    -0.7740 ns         1 JPR      -0.164000
      3 O1           2.1790     0.3240    -0.9330 o          1 JPR      -0.614100
      4 S1          -2.3620    -1.1180    -1.6490 ss         1 JPR      -0.417000
      5 C2           7.2470     0.2430     1.1110 ca         1 JPR      -0.095300
      6 N2           1.7290    -1.7600    -1.7270 ns         1 JPR      -0.523900
      7 O2          -5.3090     0.4070     0.0950 os         1 JPR      -0.234000
      8 C3           7.1900    -1.0960     0.6790 ca         1 JPR      -0.075000
      9 N3          -8.6440     1.2450     1.0450 n3         1 JPR      -0.716600
     10 C4           6.1230     1.0730     0.9120 ca         1 JPR       0.147000
     11 C5           6.0310    -1.5940     0.0600 ca         1 JPR      -0.172000
     12 C6           4.9660     0.5710     0.2920 ca         1 JPR      -0.125000
     13 C7           4.9090    -0.7710    -0.1410 ca         1 JPR       0.002000
     14 C8           2.5400    -0.8280    -1.1230 c          1 JPR       0.659100
     15 C9           0.3590    -1.5000    -2.1850 c3         1 JPR       0.129000
     16 C10         -0.6440    -1.3940    -1.0180 c3         1 JPR       0.022600
     17 C11         -3.2800    -1.0280    -0.0420 c3         1 JPR       0.049300
     18 C12         -4.7520    -0.8030    -0.2560 cc         1 JPR       0.125300
     19 C13         -5.7200    -1.6260    -0.7630 cd         1 JPR      -0.163000
     20 C14         -6.9320    -0.9050    -0.7310 cd         1 JPR      -0.168000
     21 C15         -6.6520     0.3270    -0.2040 cc         1 JPR       0.140300
     22 C16         -7.5490     1.5130     0.0730 c3         1 JPR       0.137500
     23 C17         -8.1500     0.8310     2.3810 c3         1 JPR       0.150100
     24 C18         -9.6120     2.3630     1.1280 c3         1 JPR       0.150100
     25 H11          8.9360     1.6090     1.2160 hc         1 JPR       0.047033
     26 H12          8.2980     1.1240     2.7980 hc         1 JPR       0.047033
     27 H13A         9.2850    -0.0000     1.8580 hc         1 JPR       0.047033
     28 HN1          3.8980    -2.3230    -1.0120 hn         1 JPR       0.144000
     29 HN2          2.1080    -2.6910    -1.8510 hn         1 JPR       0.308500
     30 H3           8.0440    -1.7540     0.8230 ha         1 JPR       0.115000
     31 H5           6.0090    -2.6320    -0.2660 ha         1 JPR       0.110000
     32 H6           4.1260     1.2440     0.1600 ha         1 JPR       0.165000
     33 H91          0.3440    -0.5670    -2.7650 h1         1 JPR       0.071200
     34 H92          0.0510    -2.3150    -2.8530 h1         1 JPR       0.071200
     35 H101        -0.3640    -0.5590    -0.3630 h1         1 JPR       0.065200
     36 H102        -0.6210    -2.3200    -0.4300 h1         1 JPR       0.065200
     37 H111        -3.1350    -1.9660     0.5090 h1         1 JPR       0.073700
     38 H112        -2.8690    -0.2090     0.5620 h1         1 JPR       0.073700
     39 H13         -5.5740    -2.6400    -1.1210 ha         1 JPR       0.140000
     40 H14         -7.9080    -1.2520    -1.0550 ha         1 JPR       0.152000
     41 H161        -7.9760     1.8290    -0.8890 h1         1 JPR       0.052700
     42 H162        -6.9250     2.3450     0.4290 h1         1 JPR       0.052700
     43 H171        -8.9890     0.5990     3.0500 h1         1 JPR       0.033700
     44 H172        -7.5230    -0.0680     2.3090 h1         1 JPR       0.033700
     45 H173        -7.5540     1.6300     2.8430 h1         1 JPR       0.033700
     46 H181        -9.1310     3.2700     1.5190 h1         1 JPR       0.033700
     47 H182       -10.0250     2.5930     0.1370 h1         1 JPR       0.033700
     48 H183       -10.4490     2.1040     1.7900 h1         1 JPR       0.033700
     49 C1           8.5100     0.7720     1.7820 c3         1 JPR      -0.039800
@<TRIPOS>BOND
     1     1    10 1   
     2     2    13 1   
     3     2    14 1   
     4     2    28 1   
     5     3    14 2   
     6     4    16 1   
     7     4    17 1   
     8     5     8 ar  
     9     5    10 ar  
    10     5    49 1   
    11     6    14 1   
    12     6    15 1   
    13     6    29 1   
    14     7    18 1   
    15     7    21 1   
    16     8    11 ar  
    17     8    30 1   
    18     9    22 1   
    19     9    23 1   
    20     9    24 1   
    21    10    12 ar  
    22    11    13 ar  
    23    11    31 1   
    24    12    13 ar  
    25    12    32 1   
    26    15    16 1   
    27    15    33 1   
    28    15    34 1   
    29    16    35 1   
    30    16    36 1   
    31    17    18 1   
    32    17    37 1   
    33    17    38 1   
    34    18    19 2   
    35    19    20 1   
    36    19    39 1   
    37    20    21 2   
    38    20    40 1   
    39    21    22 1   
    40    22    41 1   
    41    22    42 1   
    42    23    43 1   
    43    23    44 1   
    44    23    45 1   
    45    24    46 1   
    46    24    47 1   
    47    24    48 1   
    48    25    49 1   
    49    26    49 1   
    50    27    49 1   
@<TRIPOS>SUBSTRUCTURE
     1 JPR         1 TEMP              0 ****  ****    0 ROOT
