@<TRIPOS>MOLECULE
JPR
   49    50     1     0     0
SMALL
abcg2


@<TRIPOS>ATOM
      1 CL1          5.8770     2.7780     1.3720 cl         1 JPR      -0.206000
      2 N1           3.6590    -1.1490    -1.0890 ns         1 JPR      -0.164000
      3 O1           2.0400     0.4470    -0.8230 o          1 JPR      -0.614100
      4 S1          -2.3970    -1.0590    -1.4940 ss         1 JPR      -0.417000
      5 C2           6.9280     0.2970     1.1730 ca         1 JPR      -0.095300
      6 N2           1.6030    -1.4050    -2.0480 ns         1 JPR      -0.523900
      7 O2          -4.9520    -0.0420     0.2180 os         1 JPR      -0.234000
      8 C3           6.8440    -1.0140     0.7090 ca         1 JPR      -0.075000
      9 N3          -8.2270     1.3760     0.8560 n3         1 JPR      -0.716600
     10 C4           5.8570     1.1210     0.8450 ca         1 JPR       0.147000
     11 C5           5.7630    -1.4710    -0.0210 ca         1 JPR      -0.172000
     12 C6           4.7590     0.7020     0.1090 ca         1 JPR      -0.125000
     13 C7           4.7000    -0.6200    -0.3310 ca         1 JPR       0.002000
     14 C8           2.4040    -0.6260    -1.2820 c          1 JPR       0.659100
     15 C9           0.2180    -1.0780    -2.2780 c3         1 JPR       0.129000
     16 C10         -0.6780    -1.5080    -1.1200 c3         1 JPR       0.022600
     17 C11         -3.2020    -1.7070     0.0130 c3         1 JPR       0.049300
     18 C12         -4.6340    -1.3440     0.0260 cc         1 JPR       0.125300
     19 C13         -5.7680    -2.0690    -0.1290 cd         1 JPR      -0.163000
     20 C14         -6.8540    -1.1480    -0.0210 cd         1 JPR      -0.168000
     21 C15         -6.2980     0.0700     0.1890 cc         1 JPR       0.140300
     22 C16         -6.8770     1.4360     0.3390 c3         1 JPR       0.137500
     23 C17         -8.2580     1.0350     2.2630 c3         1 JPR       0.150100
     24 C18         -8.9480     2.6060     0.6040 c3         1 JPR       0.150100
     25 H11          8.6170     1.6010     1.4800 hc         1 JPR       0.047033
     26 H12          7.8030     1.1240     2.9600 hc         1 JPR       0.047033
     27 H13A         8.8240    -0.0310     2.1080 hc         1 JPR       0.047033
     28 HN1          3.8330    -2.0750    -1.4500 hn         1 JPR       0.144000
     29 HN2          1.9150    -2.3170    -2.3390 hn         1 JPR       0.308500
     30 H3           7.6500    -1.7010     0.9330 ha         1 JPR       0.115000
     31 H5           5.7440    -2.5020    -0.3540 ha         1 JPR       0.110000
     32 H6           3.9710     1.4010    -0.1170 ha         1 JPR       0.165000
     33 H91          0.1210    -0.0060    -2.4510 h1         1 JPR       0.071200
     34 H92         -0.0930    -1.5800    -3.1940 h1         1 JPR       0.071200
     35 H101        -0.3690    -1.0130    -0.1980 h1         1 JPR       0.065200
     36 H102        -0.6080    -2.5870    -0.9720 h1         1 JPR       0.065200
     37 H111        -3.1100    -2.7930     0.0380 h1         1 JPR       0.073700
     38 H112        -2.6820    -1.3020     0.8850 h1         1 JPR       0.073700
     39 H13         -5.8240    -3.1330    -0.2930 ha         1 JPR       0.140000
     40 H14         -7.9080    -1.3640    -0.0860 ha         1 JPR       0.152000
     41 H161        -6.9080     1.9210    -0.6420 h1         1 JPR       0.052700
     42 H162        -6.2090     2.0540     0.9620 h1         1 JPR       0.052700
     43 H171        -9.2920     0.9280     2.5940 h1         1 JPR       0.033700
     44 H172        -7.7560     0.0830     2.4390 h1         1 JPR       0.033700
     45 H173        -7.7770     1.7940     2.8990 h1         1 JPR       0.033700
     46 H181        -8.5150     3.4800     1.1150 h1         1 JPR       0.033700
     47 H182        -8.9640     2.8210    -0.4660 h1         1 JPR       0.033700
     48 H183        -9.9800     2.5040     0.9410 h1         1 JPR       0.033700
     49 C1           8.1030     0.7730     1.9710 c3         1 JPR      -0.039800
@<TRIPOS>BOND
     1     1    10 1   
     2     2    13 1   
     3     2    14 1   
     4     2    28 1   
     5     3    14 2   
     6     4    16 1   
     7     4    17 1   
     8     5     8 ar  
     9     5    10 ar  
    10     5    49 1   
    11     6    14 1   
    12     6    15 1   
    13     6    29 1   
    14     7    18 1   
    15     7    21 1   
    16     8    11 ar  
    17     8    30 1   
    18     9    22 1   
    19     9    23 1   
    20     9    24 1   
    21    10    12 ar  
    22    11    13 ar  
    23    11    31 1   
    24    12    13 ar  
    25    12    32 1   
    26    15    16 1   
    27    15    33 1   
    28    15    34 1   
    29    16    35 1   
    30    16    36 1   
    31    17    18 1   
    32    17    37 1   
    33    17    38 1   
    34    18    19 2   
    35    19    20 1   
    36    19    39 1   
    37    20    21 2   
    38    20    40 1   
    39    21    22 1   
    40    22    41 1   
    41    22    42 1   
    42    23    43 1   
    43    23    44 1   
    44    23    45 1   
    45    24    46 1   
    46    24    47 1   
    47    24    48 1   
    48    25    49 1   
    49    26    49 1   
    50    27    49 1   
@<TRIPOS>SUBSTRUCTURE
     1 JPR         1 TEMP              0 ****  ****    0 ROOT
