@<TRIPOS>MOLECULE
JPT
   26    27     1     0     0
SMALL
bcc


@<TRIPOS>ATOM
      1 C7          -0.6660    -0.2870    -1.6300 c3         1 JPT       0.051100
      2 C8          -1.8310     0.1130    -0.7680 cc         1 JPT      -0.109300
      3 C11         -2.4200     1.3410    -0.7860 cd         1 JPT      -0.107100
      4 S2          -3.7030     1.4510     0.3450 ss         1 JPT      -0.094800
      5 C12         -3.4590    -0.1660     0.8630 cd         1 JPT      -0.116100
      6 C13         -2.4360    -0.7550     0.1900 cc         1 JPT      -0.138000
      7 O3           2.8460     2.7810    -0.3790 oh         1 JPT      -0.578800
      8 C5           1.0800    -1.6860    -0.4380 cc         1 JPT      -0.066100
      9 C4           0.5580    -0.4970    -0.8030 cd         1 JPT       0.061900
     10 C1           2.2590    -1.7580     0.4150 c          1 JPT       0.556500
     11 O2           2.7220    -2.8530     0.7350 o          1 JPT      -0.572100
     12 C2           2.7830    -0.4790     0.8110 cc         1 JPT      -0.334200
     13 C3           2.1880     0.6610     0.4090 cd         1 JPT       0.139900
     14 O1           1.1100     0.6560    -0.3720 os         1 JPT      -0.175200
     15 H7          -0.8970    -1.2040    -2.1720 hc         1 JPT       0.078700
     16 H1          -0.4730     0.4830    -2.3790 hc         1 JPT       0.078700
     17 H11         -2.1630     2.1860    -1.4080 h4         1 JPT       0.169000
     18 H12         -4.0840    -0.5950     1.6310 h4         1 JPT       0.169000
     19 H13         -2.1170    -1.7740     0.3630 ha         1 JPT       0.161000
     20 H62          3.5230     1.9500     1.4130 h1         1 JPT       0.047700
     21 H61          1.8450     2.4860     1.4200 h1         1 JPT       0.047700
     22 H3           2.8570     3.7130    -0.1430 ho         1 JPT       0.414000
     23 H4           1.0790    -3.5600    -0.4840 ho         1 JPT       0.452000
     24 H2           3.6620    -0.4310     1.4390 ha         1 JPT       0.165000
     25 O4           0.5310    -2.8420    -0.8380 oh         1 JPT      -0.484100
     26 C6           2.6250     2.0380     0.7920 c3         1 JPT       0.184600
@<TRIPOS>BOND
     1     1     2 1   
     2     1     9 1   
     3     1    15 1   
     4     1    16 1   
     5     2     3 2   
     6     2     6 1   
     7     3     4 1   
     8     3    17 1   
     9     4     5 1   
    10     5     6 2   
    11     5    18 1   
    12     6    19 1   
    13     7    22 1   
    14     7    26 1   
    15     8     9 2   
    16     8    10 1   
    17     8    25 1   
    18     9    14 1   
    19    10    11 2   
    20    10    12 1   
    21    12    13 2   
    22    12    24 1   
    23    13    14 1   
    24    13    26 1   
    25    20    26 1   
    26    21    26 1   
    27    23    25 1   
@<TRIPOS>SUBSTRUCTURE
     1 JPT         1 TEMP              0 ****  ****    0 ROOT
