@<TRIPOS>MOLECULE
JPT
   26    27     1     0     0
SMALL
No Charge or Current Charge


@<TRIPOS>ATOM
      1 C7          -0.8160    -0.3750    -1.6190 c3         1 JPT       0.051100
      2 C8          -1.9250     0.0690    -0.6990 cc         1 JPT      -0.109300
      3 C11         -2.4710     1.3270    -0.6330 cd         1 JPT      -0.234000
      4 S2          -3.7480     1.4370     0.5920 ss         1 JPT       0.195000
      5 C12         -3.5060    -0.2670     1.0000 cd         1 JPT      -0.243000
      6 C13         -2.5180    -0.8230     0.2320 cc         1 JPT      -0.120000
      7 O3           3.7950     2.5590     0.2450 oh         1 JPT      -0.641000
      8 C5           1.0860    -1.6920    -0.4940 cc         1 JPT      -0.066100
      9 C4           0.5120    -0.5050    -0.9140 cd         1 JPT       0.061900
     10 C1           2.3960    -1.6830     0.1870 c          1 JPT       0.556500
     11 O2           3.0320    -2.6950     0.4570 o          1 JPT      -0.572100
     12 C2           2.7570    -0.3690     0.6750 cc         1 JPT      -0.384200
     13 C3           2.1280     0.7670     0.2130 cd         1 JPT       0.139900
     14 O1           1.2220     0.6810    -0.8290 os         1 JPT      -0.175200
     15 H7          -1.0920    -1.3270    -2.0880 hc         1 JPT       0.078700
     16 H1          -0.7220     0.3370    -2.4480 hc         1 JPT       0.078700
     17 H11         -2.2110     2.2000    -1.2180 h4         1 JPT       0.151000
     18 H12         -4.1030    -0.7350     1.7740 h4         1 JPT       0.151000
     19 H13         -2.2020    -1.8600     0.3170 ha         1 JPT       0.143000
     20 H62          2.3650     2.2380     1.7370 h1         1 JPT       0.047700
     21 H61          1.7270     2.8690     0.2130 h1         1 JPT       0.047700
     22 H3           3.9350     3.4790     0.5600 ho         1 JPT       0.453000
     23 H4           1.1840    -3.5870    -0.3430 ho         1 JPT       0.491000
     24 H2           3.5840    -0.3250     1.3730 ha         1 JPT       0.215000
     25 O4           0.5460    -2.9270    -0.7060 oh         1 JPT      -0.523100
     26 C6           2.4650     2.1790     0.6450 c3         1 JPT       0.207800
@<TRIPOS>BOND
     1     1     2 1   
     2     1     9 1   
     3     1    15 1   
     4     1    16 1   
     5     2     3 2   
     6     2     6 1   
     7     3     4 1   
     8     3    17 1   
     9     4     5 1   
    10     5     6 2   
    11     5    18 1   
    12     6    19 1   
    13     7    22 1   
    14     7    26 1   
    15     8     9 2   
    16     8    10 1   
    17     8    25 1   
    18     9    14 1   
    19    10    11 2   
    20    10    12 1   
    21    12    13 2   
    22    12    24 1   
    23    13    14 1   
    24    13    26 1   
    25    20    26 1   
    26    21    26 1   
    27    23    25 1   
@<TRIPOS>SUBSTRUCTURE
     1 JPT         1 TEMP              0 ****  ****    0 ROOT
