@<TRIPOS>MOLECULE
JPU
   54    56     1     0     0
SMALL
bcc


@<TRIPOS>ATOM
      1 C1          94.1150    -7.2580    13.5000 ca         1 JPU      -0.167900
      2 C2          93.2690    -6.9750    14.5700 ca         1 JPU      -0.050300
      3 C3          95.0790    -6.2650    13.0160 ce         1 JPU       0.485500
      4 C4          94.0380    -8.5130    12.8730 ca         1 JPU      -0.160000
      5 C5          93.3010    -5.6230    15.2310 c3         1 JPU      -0.101700
      6 C6          92.3540    -7.9420    14.9910 ca         1 JPU      -0.198000
      7 C7          96.4330    -6.7230    12.6260 ca         1 JPU      -0.100900
      8 N8          94.8680    -5.0000    12.9050 nf         1 JPU      -0.366700
      9 C9          93.1310    -9.4650    13.2820 ca         1 JPU       0.108100
     10 C10         92.9350    -4.6620    14.1180 c2         1 JPU       0.404300
     11 C11         94.5820    -5.2980    16.0140 c3         1 JPU      -0.063400
     12 C12         92.2720    -9.1750    14.3690 ca         1 JPU       0.134100
     13 C13         97.1050    -6.0900    11.5770 ca         1 JPU      -0.173000
     14 C14         97.0630    -7.7470    13.3230 ca         1 JPU      -0.140000
     15 N15         93.6490    -4.4460    13.0840 nf         1 JPU      -0.378700
     16 O16         92.9810   -10.6810    12.7280 os         1 JPU      -0.295900
     17 C17         91.6070    -3.9870    14.2170 c3         1 JPU      -0.134400
     18 C18         94.5610    -3.8900    16.5920 c3         1 JPU      -0.091100
     19 O19         91.4270   -10.1540    14.7160 os         1 JPU      -0.293900
     20 C20         98.3870    -6.4790    11.2170 ca         1 JPU       0.116100
     21 C21         98.3520    -8.1290    12.9760 ca         1 JPU      -0.124000
     22 C22         93.8550   -11.0450    11.6800 c3         1 JPU       0.120700
     23 C23         90.5680    -9.9420    15.8200 c3         1 JPU       0.121700
     24 C24         99.0210    -7.5070    11.9380 ca         1 JPU       0.076100
     25 O25         99.0950    -5.9400    10.2110 os         1 JPU      -0.304900
     26 O26        100.2920    -7.8670    11.6200 os         1 JPU      -0.322900
     27 C27         98.5200    -4.8740     9.4820 c3         1 JPU       0.119700
     28 C28        100.3850    -8.8920    10.6400 c3         1 JPU       0.127700
     29 H29         94.7020    -8.7130    12.0420 ha         1 JPU       0.149000
     30 H30         92.4870    -5.5890    15.9600 hc         1 JPU       0.059700
     31 H31         91.7050    -7.7080    15.8250 ha         1 JPU       0.139000
     32 H33         94.6500    -6.0270    16.8240 hc         1 JPU       0.051700
     33 H32         95.4770    -5.4310    15.4080 hc         1 JPU       0.051700
     34 H34         96.5960    -5.2990    11.0430 ha         1 JPU       0.157000
     35 H35         96.5650    -8.2400    14.1470 ha         1 JPU       0.142000
     36 H37         91.3970    -3.3820    13.3370 hc         1 JPU       0.054700
     37 H36         90.8160    -4.7300    14.3360 hc         1 JPU       0.054700
     38 H38         91.5730    -3.3500    15.1030 hc         1 JPU       0.054700
     39 H40         95.4450    -3.7090    17.2040 hc         1 JPU       0.036700
     40 H41         94.5480    -3.1320    15.8070 hc         1 JPU       0.036700
     41 H39         93.6840    -3.7300    17.2210 hc         1 JPU       0.036700
     42 H42         98.8550    -8.9120    13.5300 ha         1 JPU       0.144000
     43 H44         93.5960   -12.0630    11.4010 h1         1 JPU       0.042033
     44 H45         93.7370   -10.4000    10.8050 h1         1 JPU       0.042033
     45 H43         94.9020   -11.0210    11.9950 h1         1 JPU       0.042033
     46 H47         89.9910   -10.8550    15.9400 h1         1 JPU       0.042367
     47 H46         91.1280    -9.7540    16.7400 h1         1 JPU       0.042367
     48 H48         89.8810    -9.1100    15.6480 h1         1 JPU       0.042367
     49 H50         99.2550    -4.5780     8.7380 h1         1 JPU       0.043367
     50 H51         97.6030    -5.1770     8.9700 h1         1 JPU       0.043367
     51 H49         98.2990    -4.0150    10.1210 h1         1 JPU       0.043367
     52 H54        101.4430    -9.0880    10.4800 h1         1 JPU       0.034367
     53 H52         99.9030    -9.8130    10.9790 h1         1 JPU       0.034367
     54 H53         99.9350    -8.5910     9.6910 h1         1 JPU       0.034367
@<TRIPOS>BOND
     1     1     2 ar  
     2     1     3 1   
     3     1     4 ar  
     4     2     5 1   
     5     2     6 ar  
     6     3     7 1   
     7     3     8 2   
     8     4     9 ar  
     9     4    29 1   
    10     5    10 1   
    11     5    11 1   
    12     5    30 1   
    13     6    12 ar  
    14     6    31 1   
    15     7    13 ar  
    16     7    14 ar  
    17     8    15 1   
    18     9    12 ar  
    19     9    16 1   
    20    10    15 2   
    21    10    17 1   
    22    11    18 1   
    23    11    32 1   
    24    11    33 1   
    25    12    19 1   
    26    13    20 ar  
    27    13    34 1   
    28    14    21 ar  
    29    14    35 1   
    30    16    22 1   
    31    17    36 1   
    32    17    37 1   
    33    17    38 1   
    34    18    39 1   
    35    18    40 1   
    36    18    41 1   
    37    19    23 1   
    38    20    24 ar  
    39    20    25 1   
    40    21    24 ar  
    41    21    42 1   
    42    22    43 1   
    43    22    44 1   
    44    22    45 1   
    45    23    46 1   
    46    23    47 1   
    47    23    48 1   
    48    24    26 1   
    49    25    27 1   
    50    26    28 1   
    51    27    49 1   
    52    27    50 1   
    53    27    51 1   
    54    28    52 1   
    55    28    53 1   
    56    28    54 1   
@<TRIPOS>SUBSTRUCTURE
     1 JPU         1 TEMP              0 ****  ****    0 ROOT
