@<TRIPOS>MOLECULE
JPU
   54    56     1     0     0
SMALL
No Charge or Current Charge


@<TRIPOS>ATOM
      1 C1          93.9370    -7.3350    13.3770 ca         1 JPU      -0.167900
      2 C2          93.1690    -6.9940    14.5090 ca         1 JPU      -0.050300
      3 C3          94.9040    -6.3650    12.7500 ce         1 JPU       0.485500
      4 C4          93.8020    -8.6230    12.8120 ca         1 JPU      -0.142000
      5 C5          93.2580    -5.6000    15.1150 c3         1 JPU      -0.101700
      6 C6          92.2900    -7.9410    15.0720 ca         1 JPU      -0.180000
      7 C7          96.2840    -6.8870    12.4410 ca         1 JPU      -0.100900
      8 N8          94.5990    -5.1230    12.4010 nf         1 JPU      -0.366700
      9 C9          92.9240    -9.5750    13.3750 ca         1 JPU       0.108100
     10 C10         92.8930    -4.5600    14.0630 c2         1 JPU       0.404300
     11 C11         94.6120    -5.3360    15.8340 c3         1 JPU      -0.063400
     12 C12         92.1650    -9.2320    14.5150 ca         1 JPU       0.134100
     13 C13         97.0610    -6.3270    11.4010 ca         1 JPU      -0.155000
     14 C14         96.8630    -7.8890    13.2450 ca         1 JPU      -0.122000
     15 N15         93.4750    -4.4490    12.8850 nf         1 JPU      -0.378700
     16 O16         92.7850   -10.8470    12.8410 os         1 JPU      -0.319100
     17 C17         91.6880    -3.6980    14.3810 c3         1 JPU      -0.134400
     18 C18         94.6540    -3.9980    16.6000 c3         1 JPU      -0.091100
     19 O19         91.3090   -10.1810    15.0520 os         1 JPU      -0.317100
     20 C20         98.3760    -6.7810    11.1290 ca         1 JPU       0.116100
     21 C21         98.1630    -8.3500    12.9890 ca         1 JPU      -0.106000
     22 C22         93.5300   -11.2920    11.6940 c3         1 JPU       0.143900
     23 C23         90.4970    -9.9240    16.2110 c3         1 JPU       0.144900
     24 C24         98.9310    -7.8180    11.9410 ca         1 JPU       0.076100
     25 O25         99.1110    -6.2240    10.0940 os         1 JPU      -0.328100
     26 O26        100.2010    -8.3660    11.7960 os         1 JPU      -0.346100
     27 C27         98.6090    -5.1760     9.2450 c3         1 JPU       0.142900
     28 C28        101.1510    -7.9760    10.7880 c3         1 JPU       0.150900
     29 H29         94.3910    -8.8680    11.9330 ha         1 JPU       0.131000
     30 H30         92.5020    -5.5390    15.9070 hc         1 JPU       0.059700
     31 H31         91.7070    -7.6590    15.9440 ha         1 JPU       0.121000
     32 H33         94.7950    -6.1500    16.5460 hc         1 JPU       0.051700
     33 H32         95.4450    -5.3560    15.1230 hc         1 JPU       0.051700
     34 H34         96.6210    -5.5390    10.7970 ha         1 JPU       0.139000
     35 H35         96.3110    -8.3140    14.0810 ha         1 JPU       0.124000
     36 H37         91.5000    -2.9600    13.5920 hc         1 JPU       0.054700
     37 H36         90.7860    -4.3130    14.4840 hc         1 JPU       0.054700
     38 H38         91.8350    -3.1520    15.3190 hc         1 JPU       0.054700
     39 H40         95.6110    -3.8910    17.1250 hc         1 JPU       0.036700
     40 H41         94.5460    -3.1490    15.9150 hc         1 JPU       0.036700
     41 H39         93.8490    -3.9490    17.3440 hc         1 JPU       0.036700
     42 H42         98.5860    -9.1290    13.6180 ha         1 JPU       0.126000
     43 H44         93.2680   -12.3280    11.4490 h1         1 JPU       0.042033
     44 H45         93.3070   -10.6690    10.8180 h1         1 JPU       0.042033
     45 H43         94.6090   -11.2520    11.8900 h1         1 JPU       0.042033
     46 H47         89.9020   -10.8100    16.4620 h1         1 JPU       0.042367
     47 H46         91.1220    -9.6780    17.0790 h1         1 JPU       0.042367
     48 H48         89.8060    -9.0920    16.0260 h1         1 JPU       0.042367
     49 H50         99.3660    -4.8980     8.5010 h1         1 JPU       0.043367
     50 H51         97.7110    -5.5050     8.7070 h1         1 JPU       0.043367
     51 H49         98.3650    -4.2810     9.8310 h1         1 JPU       0.043367
     52 H54        102.0700    -8.5660    10.8890 h1         1 JPU       0.034367
     53 H52        100.7490    -8.1510     9.7820 h1         1 JPU       0.034367
     54 H53        101.4200    -6.9170    10.8910 h1         1 JPU       0.034367
@<TRIPOS>BOND
     1     1     2 ar  
     2     1     3 1   
     3     1     4 ar  
     4     2     5 1   
     5     2     6 ar  
     6     3     7 1   
     7     3     8 2   
     8     4     9 ar  
     9     4    29 1   
    10     5    10 1   
    11     5    11 1   
    12     5    30 1   
    13     6    12 ar  
    14     6    31 1   
    15     7    13 ar  
    16     7    14 ar  
    17     8    15 1   
    18     9    12 ar  
    19     9    16 1   
    20    10    15 2   
    21    10    17 1   
    22    11    18 1   
    23    11    32 1   
    24    11    33 1   
    25    12    19 1   
    26    13    20 ar  
    27    13    34 1   
    28    14    21 ar  
    29    14    35 1   
    30    16    22 1   
    31    17    36 1   
    32    17    37 1   
    33    17    38 1   
    34    18    39 1   
    35    18    40 1   
    36    18    41 1   
    37    19    23 1   
    38    20    24 ar  
    39    20    25 1   
    40    21    24 ar  
    41    21    42 1   
    42    22    43 1   
    43    22    44 1   
    44    22    45 1   
    45    23    46 1   
    46    23    47 1   
    47    23    48 1   
    48    24    26 1   
    49    25    27 1   
    50    26    28 1   
    51    27    49 1   
    52    27    50 1   
    53    27    51 1   
    54    28    52 1   
    55    28    53 1   
    56    28    54 1   
@<TRIPOS>SUBSTRUCTURE
     1 JPU         1 TEMP              0 ****  ****    0 ROOT
