@<TRIPOS>MOLECULE
JPV
   33    36     1     0     0
SMALL
No Charge or Current Charge


@<TRIPOS>ATOM
      1 C10          1.9480     0.7620     0.3210 ca         1 JPV      -0.044200
      2 C13          3.9930    -0.9720    -0.4280 ca         1 JPV      -0.143000
      3 C15          1.6770    -0.5540     0.0620 ca         1 JPV      -0.087800
      4 C17         -0.5980    -1.9700     0.1240 c6         1 JPV      -0.029200
      5 O01         -2.0010     2.4610    -0.8220 oh         1 JPV      -0.665000
      6 C02         -2.5060     1.1960    -0.3570 c6         1 JPV       0.173300
      7 C03         -2.3950     0.0940    -1.4660 c6         1 JPV       0.126800
      8 N04         -2.7890    -1.2650    -0.9810 n7         1 JPV      -0.868400
      9 C05         -2.1300    -1.6860     0.2920 c6         1 JPV       0.172500
     10 C06         -2.3700    -0.6150     1.3940 c6         1 JPV      -0.063400
     11 C07         -1.7610     0.7360     0.9320 c6         1 JPV       0.000500
     12 C08         -0.2940     0.4970     0.6430 cc         1 JPV      -0.048300
     13 N09          0.7740     1.4120     0.6700 na         1 JPV      -0.203700
     14 C11          3.2470     1.2770     0.2200 ca         1 JPV      -0.127000
     15 C12          4.2790     0.3900    -0.1610 ca         1 JPV      -0.096000
     16 C14          2.6740    -1.4620    -0.3180 ca         1 JPV      -0.065000
     17 C16          0.2580    -0.7200     0.2630 cd         1 JPV      -0.150400
     18 H131         4.7960    -1.6450    -0.7210 ha         1 JPV       0.108000
     19 H171        -0.2930    -2.6910     0.8940 hc         1 JPV       0.046700
     20 H172        -0.4080    -2.4660    -0.8370 hc         1 JPV       0.046700
     21 H021        -3.5710     1.3060    -0.1030 h1         1 JPV       0.043700
     22 H031        -3.0340     0.3690    -2.3180 h1         1 JPV       0.041700
     23 H032        -1.3610     0.0580    -1.8400 h1         1 JPV       0.041700
     24 H041        -2.5860    -1.9580    -1.7130 hn         1 JPV       0.416000
     25 H051        -2.6040    -2.6260     0.6150 h1         1 JPV       0.059700
     26 H062        -3.4450    -0.5050     1.5900 hc         1 JPV       0.055700
     27 H061        -1.9110    -0.9370     2.3390 hc         1 JPV       0.055700
     28 H071        -1.8890     1.4870     1.7230 hc         1 JPV       0.066700
     29 H091         0.6920     2.4000     0.8830 hn         1 JPV       0.355000
     30 H111         3.4560     2.3240     0.4270 ha         1 JPV       0.112000
     31 H121         5.3000     0.7560    -0.2490 ha         1 JPV       0.108000
     32 H141         2.4390    -2.5040    -0.5210 ha         1 JPV       0.110000
     33 H011        -2.5720     2.7350    -1.5730 ho         1 JPV       0.447000
@<TRIPOS>BOND
     1     1     3 ar  
     2     1    13 1   
     3     1    14 ar  
     4     2    15 ar  
     5     2    16 ar  
     6     2    18 1   
     7     3    16 ar  
     8     3    17 1   
     9     4     9 1   
    10     4    17 1   
    11     4    19 1   
    12     4    20 1   
    13     5     6 1   
    14     5    33 1   
    15     6     7 1   
    16     6    11 1   
    17     6    21 1   
    18     7     8 1   
    19     7    22 1   
    20     7    23 1   
    21     8     9 1   
    22     8    24 1   
    23     9    10 1   
    24     9    25 1   
    25    10    11 1   
    26    10    26 1   
    27    10    27 1   
    28    11    12 1   
    29    11    28 1   
    30    12    13 1   
    31    12    17 2   
    32    13    29 1   
    33    14    15 ar  
    34    14    30 1   
    35    15    31 1   
    36    16    32 1   
@<TRIPOS>SUBSTRUCTURE
     1 JPV         1 TEMP              0 ****  ****    0 ROOT
