@<TRIPOS>MOLECULE
JPV
   33    36     1     0     0
SMALL
bcc


@<TRIPOS>ATOM
      1 C10          1.9140     0.7740     0.3210 ca         1 JPV      -0.044200
      2 C13          3.9610    -0.9210    -0.4130 ca         1 JPV      -0.161000
      3 C15          1.6330    -0.5880     0.0550 ca         1 JPV      -0.087800
      4 C17         -0.6260    -1.9830     0.1070 c6         1 JPV      -0.029200
      5 O01         -1.8860     2.3690    -0.8090 oh         1 JPV      -0.602800
      6 C02         -2.4510     1.1580    -0.3670 c6         1 JPV       0.150100
      7 C03         -2.3630     0.0710    -1.4360 c6         1 JPV       0.126800
      8 N04         -2.8260    -1.1990    -0.9060 n7         1 JPV      -0.813200
      9 C05         -2.1270    -1.6620     0.2870 c6         1 JPV       0.172500
     10 C06         -2.3210    -0.6080     1.3750 c6         1 JPV      -0.063400
     11 C07         -1.7100     0.7140     0.8990 c6         1 JPV       0.000500
     12 C08         -0.2720     0.4520     0.6170 cc         1 JPV      -0.048300
     13 N09          0.7360     1.3770     0.6590 na         1 JPV      -0.153400
     14 C11          3.2020     1.2960     0.2260 ca         1 JPV      -0.145000
     15 C12          4.2180     0.4330    -0.1440 ca         1 JPV      -0.114000
     16 C14          2.6820    -1.4370    -0.3160 ca         1 JPV      -0.083000
     17 C16          0.2280    -0.7650     0.2490 cd         1 JPV      -0.150400
     18 H131         4.7810    -1.5680    -0.6990 ha         1 JPV       0.126000
     19 H171        -0.3360    -2.7360     0.8480 hc         1 JPV       0.046700
     20 H172        -0.4750    -2.4580    -0.8690 hc         1 JPV       0.046700
     21 H021        -3.5090     1.2930    -0.0980 h1         1 JPV       0.043700
     22 H031        -3.0070     0.3460    -2.2770 h1         1 JPV       0.041700
     23 H032        -1.3340     0.0430    -1.8230 h1         1 JPV       0.041700
     24 H041        -2.7730    -1.9040    -1.6290 hn         1 JPV       0.360800
     25 H051        -2.6260    -2.5840     0.5970 h1         1 JPV       0.059700
     26 H062        -3.3870    -0.4800     1.5750 hc         1 JPV       0.055700
     27 H061        -1.8480    -0.9260     2.3060 hc         1 JPV       0.055700
     28 H071        -1.8230     1.4850     1.6680 hc         1 JPV       0.066700
     29 H091         0.6180     2.3520     0.8750 hn         1 JPV       0.304700
     30 H111         3.4020     2.3400     0.4330 ha         1 JPV       0.130000
     31 H121         5.2300     0.8080    -0.2260 ha         1 JPV       0.126000
     32 H141         2.4950    -2.4840    -0.5250 ha         1 JPV       0.128000
     33 H011        -2.3820     2.6740    -1.5770 ho         1 JPV       0.408000
@<TRIPOS>BOND
     1     1     3 ar  
     2     1    13 1   
     3     1    14 ar  
     4     2    15 ar  
     5     2    16 ar  
     6     2    18 1   
     7     3    16 ar  
     8     3    17 1   
     9     4     9 1   
    10     4    17 1   
    11     4    19 1   
    12     4    20 1   
    13     5     6 1   
    14     5    33 1   
    15     6     7 1   
    16     6    11 1   
    17     6    21 1   
    18     7     8 1   
    19     7    22 1   
    20     7    23 1   
    21     8     9 1   
    22     8    24 1   
    23     9    10 1   
    24     9    25 1   
    25    10    11 1   
    26    10    26 1   
    27    10    27 1   
    28    11    12 1   
    29    11    28 1   
    30    12    13 1   
    31    12    17 2   
    32    13    29 1   
    33    14    15 ar  
    34    14    30 1   
    35    15    31 1   
    36    16    32 1   
@<TRIPOS>SUBSTRUCTURE
     1 JPV         1 TEMP              0 ****  ****    0 ROOT
