@<TRIPOS>MOLECULE
JPW
   41    42     1     0     0
SMALL
No Charge or Current Charge


@<TRIPOS>ATOM
      1 C4          -3.2140     0.6320    -0.0690 c6         1 JPW      -0.069700
      2 C5          -4.4740     1.1560    -0.8140 c6         1 JPW      -0.068400
      3 C6          -5.7790     0.7490    -0.0840 c6         1 JPW      -0.089400
      4 C11          5.6000    -0.5800     0.2930 c          1 JPW       0.577000
      5 C7          -5.8590    -0.7870     0.1020 c6         1 JPW       0.152500
      6 C8          -4.6120    -1.3150     0.8560 c6         1 JPW      -0.089400
      7 C9          -3.3050    -0.9100     0.1280 c6         1 JPW      -0.068400
      8 C10          3.4000    -0.5040    -0.8270 c          1 JPW       0.547000
      9 C12          5.1590     0.4740     1.3130 c6         1 JPW      -0.164400
     10 C13          3.6270     0.5190     1.5310 c6         1 JPW      -0.082400
     11 N1           1.4020     0.5240     0.3840 ns         1 JPW      -0.485900
     12 N2          -7.0900    -1.1540     0.8260 n8         1 JPW      -0.986200
     13 C3          -1.9120     1.0550    -0.8070 c3         1 JPW       0.186600
     14 N3           4.6810    -0.9540    -0.6450 ns         1 JPW      -0.483500
     15 C1           2.8690     0.5650     0.1810 c6         1 JPW       0.043700
     16 C2           0.4620     0.9570    -0.5080 c          1 JPW       0.651100
     17 O1          -0.7740     0.6750    -0.0140 os         1 JPW      -0.460100
     18 O2           0.7010     1.5170    -1.5670 o          1 JPW      -0.532000
     19 O4           6.6980    -1.1080     0.3390 o          1 JPW      -0.510000
     20 H1          -3.1750     1.1110     0.9200 hc         1 JPW       0.058700
     21 H2          -4.4310     2.2500    -0.9020 hc         1 JPW       0.045700
     22 H3          -4.4900     0.7630    -1.8410 hc         1 JPW       0.045700
     23 H4          -5.8230     1.2510     0.8920 hc         1 JPW       0.043200
     24 H5          -6.6460     1.1030    -0.6590 hc         1 JPW       0.043200
     25 H6          -5.9000    -1.2640    -0.8910 h1         1 JPW       0.060700
     26 H7          -4.5950    -0.9210     1.8820 hc         1 JPW       0.043200
     27 H8          -4.6580    -2.4100     0.9410 hc         1 JPW       0.043200
     28 H9          -3.2560    -1.4140    -0.8470 hc         1 JPW       0.045700
     29 H10         -2.4430    -1.2710     0.7070 hc         1 JPW       0.045700
     30 H11          5.7290     0.3560     2.2440 hc         1 JPW       0.085200
     31 H12          5.4540     1.4410     0.8840 hc         1 JPW       0.085200
     32 H13          3.3180    -0.3740     2.0940 hc         1 JPW       0.065200
     33 H14          3.3580     1.3870     2.1490 hc         1 JPW       0.065200
     34 H15          1.0330     0.0840     1.2170 hn         1 JPW       0.328500
     35 H16         -7.0840    -2.1670     0.9930 hn         1 JPW       0.390000
     36 H17         -7.0450    -0.7550     1.7700 hn         1 JPW       0.390000
     37 H19         -1.8820     0.5700    -1.7920 h1         1 JPW       0.052700
     38 H20         -1.9260     2.1430    -0.9600 h1         1 JPW       0.052700
     39 H21          4.9940    -1.6500    -1.3050 hn         1 JPW       0.331500
     40 H22          3.1120     1.5260    -0.2970 h1         1 JPW       0.109700
     41 O3           2.7420    -0.9120    -1.7710 o          1 JPW      -0.501000
@<TRIPOS>BOND
     1     1     2 1   
     2     1     7 1   
     3     1    13 1   
     4     1    20 1   
     5     2     3 1   
     6     2    21 1   
     7     2    22 1   
     8     3     5 1   
     9     3    23 1   
    10     3    24 1   
    11     4     9 1   
    12     4    14 1   
    13     4    19 2   
    14     5     6 1   
    15     5    12 1   
    16     5    25 1   
    17     6     7 1   
    18     6    26 1   
    19     6    27 1   
    20     7    28 1   
    21     7    29 1   
    22     8    14 1   
    23     8    15 1   
    24     8    41 2   
    25     9    10 1   
    26     9    30 1   
    27     9    31 1   
    28    10    15 1   
    29    10    32 1   
    30    10    33 1   
    31    11    15 1   
    32    11    16 1   
    33    11    34 1   
    34    12    35 1   
    35    12    36 1   
    36    13    17 1   
    37    13    37 1   
    38    13    38 1   
    39    14    39 1   
    40    15    40 1   
    41    16    17 1   
    42    16    18 2   
@<TRIPOS>SUBSTRUCTURE
     1 JPW         1 TEMP              0 ****  ****    0 ROOT
