@<TRIPOS>MOLECULE
JPW
   41    42     1     0     0
SMALL
bcc


@<TRIPOS>ATOM
      1 C4          -3.1630     0.6600     0.1120 c6         1 JPW      -0.069700
      2 C5          -4.3670     1.2380    -0.6320 c6         1 JPW      -0.068400
      3 C6          -5.6890     0.7240    -0.0750 c6         1 JPW      -0.089400
      4 C11          5.4770    -0.5980     0.2040 c          1 JPW       0.719500
      5 C7          -5.7520    -0.7990    -0.0750 c6         1 JPW       0.152500
      6 C8          -4.5480    -1.3720     0.6730 c6         1 JPW      -0.089400
      7 C9          -3.2220    -0.8670     0.1130 c6         1 JPW      -0.068400
      8 C10          3.0960    -0.8570    -0.4330 c          1 JPW       0.689500
      9 C12          5.1510     0.6920     0.9030 c6         1 JPW      -0.164400
     10 C13          3.7100     0.7610     1.3780 c6         1 JPW      -0.082400
     11 N1           1.3990     0.5530     0.5890 ns         1 JPW      -0.552900
     12 N2          -7.0420    -1.2400     0.4400 n8         1 JPW      -0.875800
     13 C3          -1.8960     1.1940    -0.5270 c3         1 JPW       0.163400
     14 N3           4.4160    -1.2450    -0.3990 ns         1 JPW      -0.617500
     15 C1           2.7770     0.4870     0.2080 c6         1 JPW       0.043700
     16 C2           0.4400     0.9570    -0.2750 c          1 JPW       0.767100
     17 O1          -0.7710     0.7550     0.2400 os         1 JPW      -0.436900
     18 O2           0.6500     1.4660    -1.3550 o          1 JPW      -0.581000
     19 O4           6.5900    -1.0660     0.1360 o          1 JPW      -0.585500
     20 H1          -3.2070     1.0110     1.1510 hc         1 JPW       0.058700
     21 H2          -4.3450     2.3300    -0.5890 hc         1 JPW       0.045700
     22 H3          -4.2950     0.9700    -1.6930 hc         1 JPW       0.045700
     23 H4          -5.8200     1.0870     0.9520 hc         1 JPW       0.043200
     24 H5          -6.5220     1.1270    -0.6560 hc         1 JPW       0.043200
     25 H6          -5.6910    -1.1330    -1.1190 h1         1 JPW       0.060700
     26 H7          -4.6290    -1.0950     1.7310 hc         1 JPW       0.043200
     27 H8          -4.5770    -2.4650     0.6350 hc         1 JPW       0.043200
     28 H9          -3.0960    -1.2290    -0.9150 hc         1 JPW       0.045700
     29 H10         -2.3940    -1.2840     0.6900 hc         1 JPW       0.045700
     30 H11          5.8530     0.8210     1.7260 hc         1 JPW       0.085200
     31 H12          5.3480     1.5000     0.1900 hc         1 JPW       0.085200
     32 H13          3.5380     0.0350     2.1770 hc         1 JPW       0.065200
     33 H14          3.5000     1.7500     1.7830 hc         1 JPW       0.065200
     34 H15          1.1160     0.0450     1.4140 hn         1 JPW       0.328500
     35 H16         -7.0880    -2.2520     0.4060 hn         1 JPW       0.334800
     36 H17         -7.1020    -1.0040     1.4250 hn         1 JPW       0.334800
     37 H19         -1.8140     0.8360    -1.5570 h1         1 JPW       0.052700
     38 H20         -1.9140     2.2870    -0.5520 h1         1 JPW       0.052700
     39 H21          4.6340    -2.1210    -0.8610 hn         1 JPW       0.331500
     40 H22          2.9580     1.2470    -0.5600 h1         1 JPW       0.109700
     41 O3           2.2580    -1.5500    -0.9590 o          1 JPW      -0.576500
@<TRIPOS>BOND
     1     1     2 1   
     2     1     7 1   
     3     1    13 1   
     4     1    20 1   
     5     2     3 1   
     6     2    21 1   
     7     2    22 1   
     8     3     5 1   
     9     3    23 1   
    10     3    24 1   
    11     4     9 1   
    12     4    14 1   
    13     4    19 2   
    14     5     6 1   
    15     5    12 1   
    16     5    25 1   
    17     6     7 1   
    18     6    26 1   
    19     6    27 1   
    20     7    28 1   
    21     7    29 1   
    22     8    14 1   
    23     8    15 1   
    24     8    41 2   
    25     9    10 1   
    26     9    30 1   
    27     9    31 1   
    28    10    15 1   
    29    10    32 1   
    30    10    33 1   
    31    11    15 1   
    32    11    16 1   
    33    11    34 1   
    34    12    35 1   
    35    12    36 1   
    36    13    17 1   
    37    13    37 1   
    38    13    38 1   
    39    14    39 1   
    40    15    40 1   
    41    16    17 1   
    42    16    18 2   
@<TRIPOS>SUBSTRUCTURE
     1 JPW         1 TEMP              0 ****  ****    0 ROOT
