@<TRIPOS>MOLECULE
JPY
   36    39     1     0     0
SMALL
No Charge or Current Charge


@<TRIPOS>ATOM
      1 C1          -5.1620     1.2260    -1.5990 c3         1 JPY      -0.179100
      2 C4          -4.7020     0.6740    -0.2570 c          1 JPY       0.602100
      3 O2          -5.3720     0.7680     0.7610 o          1 JPY      -0.615100
      4 N1          -3.4740     0.0610    -0.2740 ns         1 JPY      -0.506900
      5 C5          -2.8330    -0.5370     0.8950 c3         1 JPY       0.143300
      6 C6          -1.4140    -1.0020     0.5760 ca         1 JPY      -0.101300
      7 C21         -0.3260    -0.0970     0.4430 ca         1 JPY      -0.008000
      8 C10          0.9670    -0.5980     0.1480 ca         1 JPY      -0.020000
      9 C20         -0.4990     1.2990     0.5950 ca         1 JPY      -0.101000
     10 C19          0.5910     2.1750     0.4600 ca         1 JPY      -0.094000
     11 C12          1.8710     1.6760     0.1700 ca         1 JPY      -0.035000
     12 C13          2.9620     2.5560     0.0360 ca         1 JPY      -0.091000
     13 C14          4.2410     2.0520    -0.2550 ca         1 JPY      -0.108000
     14 C15          4.4350     0.6700    -0.4130 ca         1 JPY      -0.093000
     15 C16          3.3490    -0.2160    -0.2800 ca         1 JPY      -0.036000
     16 C11          2.0610     0.2870     0.0130 ca         1 JPY      -0.016000
     17 C17          3.5420    -1.5990    -0.4380 ca         1 JPY      -0.090000
     18 C18          2.4570    -2.4810    -0.3060 ca         1 JPY      -0.101000
     19 C9           1.1720    -1.9860    -0.0140 ca         1 JPY      -0.025000
     20 C8           0.0920    -2.8720     0.1150 ca         1 JPY      -0.101000
     21 C7          -1.1890    -2.3830     0.4070 ca         1 JPY      -0.100000
     22 H1          -6.1440     1.7080    -1.5440 hc         1 JPY       0.060700
     23 H2          -4.3970     1.9100    -1.9840 hc         1 JPY       0.060700
     24 H3          -5.1470     0.4190    -2.3400 hc         1 JPY       0.060700
     25 H4          -2.9880     0.0250    -1.1620 hn         1 JPY       0.313500
     26 H5          -2.8160     0.1890     1.7180 h1         1 JPY       0.064200
     27 H6          -3.4400    -1.3900     1.2270 h1         1 JPY       0.064200
     28 H7          -1.4730     1.7260     0.8150 ha         1 JPY       0.133000
     29 H8           0.4360     3.2450     0.5800 ha         1 JPY       0.117000
     30 H9           2.8200     3.6270     0.1560 ha         1 JPY       0.115000
     31 H10          5.0820     2.7340    -0.3590 ha         1 JPY       0.115000
     32 H11          5.4290     0.2890    -0.6380 ha         1 JPY       0.114000
     33 H12          4.5300    -1.9940    -0.6640 ha         1 JPY       0.114000
     34 H13          2.6160    -3.5500    -0.4310 ha         1 JPY       0.114000
     35 H14          0.2430    -3.9420    -0.0100 ha         1 JPY       0.116000
     36 H15         -2.0150    -3.0860     0.5020 ha         1 JPY       0.111000
@<TRIPOS>BOND
     1     1     2 1   
     2     1    22 1   
     3     1    23 1   
     4     1    24 1   
     5     2     3 2   
     6     2     4 1   
     7     4     5 1   
     8     4    25 1   
     9     5     6 1   
    10     5    26 1   
    11     5    27 1   
    12     6     7 ar  
    13     6    21 ar  
    14     7     8 ar  
    15     7     9 ar  
    16     8    16 ar  
    17     8    19 ar  
    18     9    10 ar  
    19     9    28 1   
    20    10    11 ar  
    21    10    29 1   
    22    11    12 ar  
    23    11    16 ar  
    24    12    13 ar  
    25    12    30 1   
    26    13    14 ar  
    27    13    31 1   
    28    14    15 ar  
    29    14    32 1   
    30    15    16 ar  
    31    15    17 ar  
    32    17    18 ar  
    33    17    33 1   
    34    18    19 ar  
    35    18    34 1   
    36    19    20 ar  
    37    20    21 ar  
    38    20    35 1   
    39    21    36 1   
@<TRIPOS>SUBSTRUCTURE
     1 JPY         1 TEMP              0 ****  ****    0 ROOT
