@<TRIPOS>MOLECULE
JPY
   36    39     1     0     0
SMALL
bcc


@<TRIPOS>ATOM
      1 C1          -4.6860     1.4450    -1.6180 c3         1 JPY      -0.179100
      2 C4          -4.1410     1.0160    -0.2790 c          1 JPY       0.669100
      3 O2          -4.2690     1.7160     0.7190 o          1 JPY      -0.615100
      4 N1          -3.4970    -0.1640    -0.2720 ns         1 JPY      -0.573900
      5 C5          -2.8810    -0.7600     0.8950 c3         1 JPY       0.143300
      6 C6          -1.4560    -1.1670     0.6200 ca         1 JPY      -0.101300
      7 C21         -0.4290    -0.2190     0.4740 ca         1 JPY      -0.008000
      8 C10          0.8840    -0.6580     0.1660 ca         1 JPY      -0.020000
      9 C20         -0.6510     1.1900     0.6300 ca         1 JPY      -0.119000
     10 C19          0.3520     2.0850     0.4750 ca         1 JPY      -0.112000
     11 C12          1.6810     1.6680     0.1490 ca         1 JPY      -0.035000
     12 C13          2.7240     2.5800    -0.0210 ca         1 JPY      -0.109000
     13 C14          4.0010     2.1410    -0.3300 ca         1 JPY      -0.126000
     14 C15          4.2630     0.7860    -0.4740 ca         1 JPY      -0.111000
     15 C16          3.2470    -0.1570    -0.3120 ca         1 JPY      -0.036000
     16 C11          1.9370     0.2840     0.0010 ca         1 JPY      -0.016000
     17 C17          3.4890    -1.5620    -0.4560 ca         1 JPY      -0.108000
     18 C18          2.4920    -2.4600    -0.2960 ca         1 JPY      -0.119000
     19 C9           1.1590    -2.0410     0.0190 ca         1 JPY      -0.025000
     20 C8           0.1210    -2.9550     0.1830 ca         1 JPY      -0.119000
     21 C7          -1.1600    -2.5170     0.4750 ca         1 JPY      -0.118000
     22 H1          -5.7390     1.7060    -1.5160 hc         1 JPY       0.060700
     23 H2          -4.1590     2.3430    -1.9430 hc         1 JPY       0.060700
     24 H3          -4.5870     0.6910    -2.3950 hc         1 JPY       0.060700
     25 H4          -3.4500    -0.6910    -1.1290 hn         1 JPY       0.313500
     26 H5          -2.9450    -0.0480     1.7170 h1         1 JPY       0.064200
     27 H6          -3.4490    -1.6410     1.2010 h1         1 JPY       0.064200
     28 H7          -1.6350     1.5520     0.8910 ha         1 JPY       0.151000
     29 H8           0.1580     3.1430     0.6030 ha         1 JPY       0.135000
     30 H9           2.5260     3.6390     0.0930 ha         1 JPY       0.133000
     31 H10          4.8000     2.8590    -0.4590 ha         1 JPY       0.133000
     32 H11          5.2640     0.4510    -0.7170 ha         1 JPY       0.132000
     33 H12          4.4910    -1.8930    -0.6990 ha         1 JPY       0.132000
     34 H13          2.6870    -3.5190    -0.4080 ha         1 JPY       0.132000
     35 H14          0.3190    -4.0150     0.0760 ha         1 JPY       0.134000
     36 H15         -1.9550    -3.2450     0.5870 ha         1 JPY       0.129000
@<TRIPOS>BOND
     1     1     2 1   
     2     1    22 1   
     3     1    23 1   
     4     1    24 1   
     5     2     3 2   
     6     2     4 1   
     7     4     5 1   
     8     4    25 1   
     9     5     6 1   
    10     5    26 1   
    11     5    27 1   
    12     6     7 ar  
    13     6    21 ar  
    14     7     8 ar  
    15     7     9 ar  
    16     8    16 ar  
    17     8    19 ar  
    18     9    10 ar  
    19     9    28 1   
    20    10    11 ar  
    21    10    29 1   
    22    11    12 ar  
    23    11    16 ar  
    24    12    13 ar  
    25    12    30 1   
    26    13    14 ar  
    27    13    31 1   
    28    14    15 ar  
    29    14    32 1   
    30    15    16 ar  
    31    15    17 ar  
    32    17    18 ar  
    33    17    33 1   
    34    18    19 ar  
    35    18    34 1   
    36    19    20 ar  
    37    20    21 ar  
    38    20    35 1   
    39    21    36 1   
@<TRIPOS>SUBSTRUCTURE
     1 JPY         1 TEMP              0 ****  ****    0 ROOT
