@<TRIPOS>MOLECULE
JPZ
   17    18     1     0     0
SMALL
No Charge or Current Charge


@<TRIPOS>ATOM
      1 C9          -2.4310     1.0590    -0.0140 ca         1 JPZ      -0.149000
      2 C8          -2.7500    -0.3090    -0.0060 ca         1 JPZ      -0.051000
      3 C10         -1.0850     1.4650    -0.0180 ca         1 JPZ      -0.019000
      4 C7          -1.7200    -1.2660    -0.0020 ca         1 JPZ      -0.169000
      5 C4           1.9690    -1.4830    -0.0050 cc         1 JPZ       0.681100
      6 C11         -0.0650     0.4910    -0.0140 ca         1 JPZ      -0.221600
      7 C6          -0.3770    -0.8590    -0.0060 ca         1 JPZ       0.304000
      8 C2           1.3650     0.8400    -0.0170 c          1 JPZ       0.713100
      9 N5           0.6210    -1.8160    -0.0020 na         1 JPZ      -0.904200
     10 N3           2.2830    -0.2030    -0.0130 nd         1 JPZ      -0.703100
     11 O1           1.7650     1.9940    -0.0240 o          1 JPZ      -0.531100
     12 H9          -3.2240     1.8030    -0.0170 ha         1 JPZ       0.123000
     13 H8          -3.7910    -0.6270    -0.0030 ha         1 JPZ       0.118000
     14 H10         -0.8410     2.5260    -0.0240 ha         1 JPZ       0.141000
     15 H7          -1.9700    -2.3240     0.0040 ha         1 JPZ       0.118000
     16 H4           2.7120    -2.2720    -0.0020 h5         1 JPZ       0.044800
     17 H6           0.3800    -2.8020     0.0040 hn         1 JPZ       0.508000
@<TRIPOS>BOND
     1     1     2 ar  
     2     1     3 ar  
     3     1    12 1   
     4     2     4 ar  
     5     2    13 1   
     6     3     6 ar  
     7     3    14 1   
     8     4     7 ar  
     9     4    15 1   
    10     5     9 1   
    11     5    10 2   
    12     5    16 1   
    13     6     7 ar  
    14     6     8 1   
    15     7     9 1   
    16     8    10 1   
    17     8    11 2   
    18     9    17 1   
@<TRIPOS>SUBSTRUCTURE
     1 JPZ         1 TEMP              0 ****  ****    0 ROOT
