@<TRIPOS>MOLECULE
JPZ
   17    18     1     0     0
SMALL
bcc


@<TRIPOS>ATOM
      1 C9          -2.3890     1.0440    -0.0130 ca         1 JPZ      -0.167000
      2 C8          -2.7240    -0.3140    -0.0070 ca         1 JPZ      -0.069000
      3 C10         -1.0650     1.4270    -0.0170 ca         1 JPZ      -0.037000
      4 C7          -1.7430    -1.2820    -0.0030 ca         1 JPZ      -0.187000
      5 C4           1.8930    -1.4090    -0.0070 cc         1 JPZ       0.681100
      6 C11         -0.0510     0.4660    -0.0130 ca         1 JPZ      -0.221600
      7 C6          -0.4040    -0.8860    -0.0060 ca         1 JPZ       0.165600
      8 C2           1.3730     0.8380    -0.0180 c          1 JPZ       0.713100
      9 N5           0.6180    -1.8060    -0.0020 na         1 JPZ      -0.710600
     10 N3           2.3000    -0.1820    -0.0150 nd         1 JPZ      -0.703100
     11 O1           1.7350     2.0040    -0.0240 o          1 JPZ      -0.531100
     12 H9          -3.1710     1.7920    -0.0170 ha         1 JPZ       0.141000
     13 H8          -3.7640    -0.6120    -0.0040 ha         1 JPZ       0.136000
     14 H10         -0.7990     2.4750    -0.0220 ha         1 JPZ       0.159000
     15 H7          -1.9990    -2.3340     0.0010 ha         1 JPZ       0.136000
     16 H4           2.6220    -2.2110    -0.0030 h5         1 JPZ       0.044800
     17 H6           0.4100    -2.7940     0.0100 hn         1 JPZ       0.452800
@<TRIPOS>BOND
     1     1     2 ar  
     2     1     3 ar  
     3     1    12 1   
     4     2     4 ar  
     5     2    13 1   
     6     3     6 ar  
     7     3    14 1   
     8     4     7 ar  
     9     4    15 1   
    10     5     9 1   
    11     5    10 2   
    12     5    16 1   
    13     6     7 ar  
    14     6     8 1   
    15     7     9 1   
    16     8    10 1   
    17     8    11 2   
    18     9    17 1   
@<TRIPOS>SUBSTRUCTURE
     1 JPZ         1 TEMP              0 ****  ****    0 ROOT
