@<TRIPOS>MOLECULE
JQ0
   44    45     1     0     0
SMALL
abcg2


@<TRIPOS>ATOM
      1 CBG         -6.7030   -24.2810    14.7260 c5         1 JQ0       0.083500
      2 CBH         -7.8010   -25.2410    15.1180 c          1 JQ0       0.569000
      3 CBK        -10.0120   -26.0140    14.7630 c3         1 JQ0       0.043000
      4 CBL        -10.5820   -26.0730    16.1660 c          1 JQ0       0.577100
      5 CBP        -11.1430   -21.9330    13.5720 c3         1 JQ0      -0.059700
      6 CBQ        -12.6170   -21.7960    13.2050 c3         1 JQ0      -0.090600
      7 CBR        -10.8090   -21.0330    14.7590 c3         1 JQ0      -0.090600
      8 CBS        -10.8240   -23.4050    13.8620 c3         1 JQ0      -0.086400
      9 CBT         -9.3240   -23.6970    13.9420 c3         1 JQ0       0.160900
     10 CBU         -8.6840   -23.6110    12.5730 c2         1 JQ0      -0.243200
     11 CBV         -7.4250   -23.9220    12.2750 c2         1 JQ0      -0.184200
     12 CBW         -6.3890   -24.4240    13.2260 c5         1 JQ0      -0.072500
     13 CBX         -5.0350   -23.7180    13.1590 c5         1 JQ0      -0.098400
     14 CBY         -4.3830   -24.0620    14.5140 c5         1 JQ0       0.144800
     15 NBF         -5.4520   -24.5320    15.4110 n7         1 JQ0      -0.827400
     16 NBJ         -9.0280   -24.9750    14.6140 n          1 JQ0      -0.397800
     17 OBI         -7.5730   -26.2520    15.7670 o          1 JQ0      -0.555000
     18 OBO        -10.4760   -25.2030    16.9890 o          1 JQ0      -0.474000
     19 C          -11.8980   -27.3890    17.6080 c3         1 JQ0       0.152900
     20 O          -11.2440   -27.2030    16.3530 os         1 JQ0      -0.445100
     21 HBG         -7.0100   -23.2470    14.9190 h1         1 JQ0       0.087700
     22 HZS        -10.8330   -25.8550    14.0640 h1         1 JQ0       0.082700
     23 HBK         -9.5870   -26.9860    14.5050 h1         1 JQ0       0.082700
     24 HBP        -10.5520   -21.6000    12.7110 hc         1 JQ0       0.046700
     25 HZV        -12.8760   -20.7560    13.0010 hc         1 JQ0       0.036033
     26 HZW        -12.8630   -22.3810    12.3170 hc         1 JQ0       0.036033
     27 HBQ        -13.2560   -22.1440    14.0200 hc         1 JQ0       0.036033
     28 HBR         -9.7520   -21.0590    15.0230 hc         1 JQ0       0.036033
     29 HZX        -11.0600   -19.9950    14.5390 hc         1 JQ0       0.036033
     30 HZY        -11.3800   -21.3330    15.6410 hc         1 JQ0       0.036033
     31 HBS        -11.3060   -23.6690    14.8070 hc         1 JQ0       0.052700
     32 HZZ        -11.2780   -24.0260    13.0840 hc         1 JQ0       0.052700
     33 HBT         -8.8990   -22.9160    14.5760 h1         1 JQ0       0.070700
     34 HBU         -9.3250   -23.2650    11.7690 ha         1 JQ0       0.180000
     35 HBV         -7.1110   -23.8380    11.2390 ha         1 JQ0       0.176000
     36 HBW         -6.2200   -25.4910    13.0200 hc         1 JQ0       0.066700
     37 HBX         -4.4360   -24.0400    12.3090 hc         1 JQ0       0.052200
     38 HZ0         -5.1880   -22.6400    13.0660 hc         1 JQ0       0.052200
     39 HZ1         -3.6250   -24.8380    14.4040 h1         1 JQ0       0.049700
     40 HBY         -3.8830   -23.1850    14.9300 h1         1 JQ0       0.049700
     41 H4          -5.3590   -25.5280    15.5590 hn         1 JQ0       0.428000
     42 H2         -12.3860   -28.3580    17.5500 h1         1 JQ0       0.048367
     43 H1         -11.1840   -27.3930    18.4320 h1         1 JQ0       0.048367
     44 H3         -12.6460   -26.6170    17.7850 h1         1 JQ0       0.048367
@<TRIPOS>BOND
     1     1     2 1   
     2     1    12 1   
     3     1    15 1   
     4     1    21 1   
     5     2    16 1   
     6     2    17 2   
     7     3     4 1   
     8     3    16 1   
     9     3    22 1   
    10     3    23 1   
    11     4    18 2   
    12     4    20 1   
    13     5     6 1   
    14     5     7 1   
    15     5     8 1   
    16     5    24 1   
    17     6    25 1   
    18     6    26 1   
    19     6    27 1   
    20     7    28 1   
    21     7    29 1   
    22     7    30 1   
    23     8     9 1   
    24     8    31 1   
    25     8    32 1   
    26     9    10 1   
    27     9    16 1   
    28     9    33 1   
    29    10    11 2   
    30    10    34 1   
    31    11    12 1   
    32    11    35 1   
    33    12    13 1   
    34    12    36 1   
    35    13    14 1   
    36    13    37 1   
    37    13    38 1   
    38    14    15 1   
    39    14    39 1   
    40    14    40 1   
    41    15    41 1   
    42    19    20 1   
    43    19    42 1   
    44    19    43 1   
    45    19    44 1   
@<TRIPOS>SUBSTRUCTURE
     1 JQ0         1 TEMP              0 ****  ****    0 ROOT
