@<TRIPOS>MOLECULE
JQ0
   44    45     1     0     0
SMALL
No Charge or Current Charge


@<TRIPOS>ATOM
      1 CBG         -6.5330   -24.1940    14.7350 c5         1 JQ0       0.083500
      2 CBH         -7.5990   -25.2580    15.2070 c          1 JQ0       0.569000
      3 CBK         -9.9160   -26.1370    14.8350 c3         1 JQ0       0.043000
      4 CBL        -10.6610   -26.1350    16.1860 c          1 JQ0       0.577100
      5 CBP        -11.2420   -22.0260    13.5990 c3         1 JQ0      -0.059700
      6 CBQ        -12.7710   -21.9410    13.3860 c3         1 JQ0      -0.090600
      7 CBR        -10.7870   -21.0080    14.6730 c3         1 JQ0      -0.090600
      8 CBS        -10.8150   -23.4900    13.9250 c3         1 JQ0      -0.086400
      9 CBT         -9.2770   -23.7560    14.0230 c3         1 JQ0       0.160900
     10 CBU         -8.6080   -23.5920    12.6620 c2         1 JQ0      -0.243200
     11 CBV         -7.3340   -23.8390    12.2920 c2         1 JQ0      -0.184200
     12 CBW         -6.2590   -24.4040    13.2210 c5         1 JQ0      -0.072500
     13 CBX         -4.9720   -23.5580    13.0880 c5         1 JQ0      -0.098400
     14 CBY         -4.1660   -24.0880    14.3000 c5         1 JQ0       0.144800
     15 NBF         -5.1710   -24.3310    15.3720 n7         1 JQ0      -0.827400
     16 NBJ         -8.8930   -25.0540    14.6570 n          1 JQ0      -0.397800
     17 OBI         -7.3490   -26.2180    15.9300 o          1 JQ0      -0.555000
     18 OBO        -10.4790   -25.3160    17.0790 o          1 JQ0      -0.474000
     19 C          -12.3780   -27.2710    17.4410 c3         1 JQ0       0.152900
     20 O          -11.5850   -27.1480    16.2460 os         1 JQ0      -0.445100
     21 HBG         -6.9050   -23.1810    14.9310 h1         1 JQ0       0.087700
     22 HZS        -10.6630   -26.1050    14.0360 h1         1 JQ0       0.082700
     23 HBK         -9.4260   -27.1140    14.7470 h1         1 JQ0       0.082700
     24 HBP        -10.7780   -21.7260    12.6520 hc         1 JQ0       0.046700
     25 HZV        -13.0690   -20.9240    13.1050 hc         1 JQ0       0.036033
     26 HZW        -13.0900   -22.6180    12.5840 hc         1 JQ0       0.036033
     27 HBQ        -13.3090   -22.2150    14.3020 hc         1 JQ0       0.036033
     28 HBR         -9.6950   -20.9300    14.7130 hc         1 JQ0       0.036033
     29 HZX        -11.1770   -20.0080    14.4470 hc         1 JQ0       0.036033
     30 HZY        -11.1510   -21.2980    15.6670 hc         1 JQ0       0.036033
     31 HBS        -11.2850   -23.7550    14.8790 hc         1 JQ0       0.052700
     32 HZZ        -11.2430   -24.1560    13.1660 hc         1 JQ0       0.052700
     33 HBT         -8.9010   -22.9700    14.6860 h1         1 JQ0       0.070700
     34 HBU         -9.2830   -23.2200    11.8910 ha         1 JQ0       0.180000
     35 HBV         -7.0620   -23.6500    11.2500 ha         1 JQ0       0.176000
     36 HBW         -6.0640   -25.4580    12.9870 hc         1 JQ0       0.066700
     37 HBX         -4.4510   -23.7180    12.1370 hc         1 JQ0       0.052200
     38 HZ0         -5.1740   -22.4840    13.1810 hc         1 JQ0       0.052200
     39 HZ1         -3.6630   -25.0300    14.0390 h1         1 JQ0       0.049700
     40 HBY         -3.3910   -23.3780    14.6200 h1         1 JQ0       0.049700
     41 H4          -5.0610   -25.2980    15.7100 hn         1 JQ0       0.428000
     42 H2         -13.0700   -28.1180    17.3550 h1         1 JQ0       0.048367
     43 H1         -11.7400   -27.4420    18.3180 h1         1 JQ0       0.048367
     44 H3         -12.9710   -26.3640    17.6140 h1         1 JQ0       0.048367
@<TRIPOS>BOND
     1     1     2 1   
     2     1    12 1   
     3     1    15 1   
     4     1    21 1   
     5     2    16 1   
     6     2    17 2   
     7     3     4 1   
     8     3    16 1   
     9     3    22 1   
    10     3    23 1   
    11     4    18 2   
    12     4    20 1   
    13     5     6 1   
    14     5     7 1   
    15     5     8 1   
    16     5    24 1   
    17     6    25 1   
    18     6    26 1   
    19     6    27 1   
    20     7    28 1   
    21     7    29 1   
    22     7    30 1   
    23     8     9 1   
    24     8    31 1   
    25     8    32 1   
    26     9    10 1   
    27     9    16 1   
    28     9    33 1   
    29    10    11 2   
    30    10    34 1   
    31    11    12 1   
    32    11    35 1   
    33    12    13 1   
    34    12    36 1   
    35    13    14 1   
    36    13    37 1   
    37    13    38 1   
    38    14    15 1   
    39    14    39 1   
    40    14    40 1   
    41    15    41 1   
    42    19    20 1   
    43    19    42 1   
    44    19    43 1   
    45    19    44 1   
@<TRIPOS>SUBSTRUCTURE
     1 JQ0         1 TEMP              0 ****  ****    0 ROOT
