@<TRIPOS>MOLECULE
JQ1
   57    60     1     0     0
SMALL
abcg2


@<TRIPOS>ATOM
      1 CAA         29.8240    18.7940     1.7320 c3         1 JQ1      -0.147400
      2 CAB         25.2330    14.9850     1.1780 c3         1 JQ1      -0.038800
      3 CAC         25.6990    14.9810    -1.8910 c3         1 JQ1      -0.037800
      4 CAD         29.0880    12.8190    -5.3350 c3         1 JQ1      -0.109433
      5 CAE         30.7960    11.1040    -4.5690 c3         1 JQ1      -0.109433
      6 CAF         28.7480    11.5670    -3.1920 c3         1 JQ1      -0.109433
      7 OAG         31.9040    13.9520    -4.8620 o          1 JQ1      -0.454000
      8 CAI         25.6940    18.4650    -4.1060 ca         1 JQ1      -0.105500
      9 CAJ         26.8550    17.2770    -5.8710 ca         1 JQ1      -0.105500
     10 CAK         26.5290    17.8740    -3.1690 ca         1 JQ1      -0.060000
     11 CAL         27.6930    16.7060    -4.9260 ca         1 JQ1      -0.060000
     12 CAM         31.7930    14.9980    -2.6990 c3         1 JQ1      -0.134400
     13 NAN         29.6600    16.1630    -2.9290 n2         1 JQ1      -0.580900
     14 NAO         31.7560    18.1840     0.3070 n2         1 JQ1      -0.444800
     15 NAP         31.9520    17.2830    -0.6950 na         1 JQ1      -0.013900
     16 OAQ         30.4350    13.1900    -3.3170 os         1 JQ1      -0.494100
     17 SAR         27.7540    16.1710     1.3670 ss         1 JQ1       0.318000
     18 CAS         31.3910    13.9960    -3.7670 c          1 JQ1       0.620100
     19 CAT         28.4500    16.3900    -2.5700 ce         1 JQ1       0.580500
     20 CAU         25.8630    18.1550    -5.4480 ca         1 JQ1       0.152000
     21 CAV         30.5150    18.0240     0.6790 cc         1 JQ1       0.478800
     22 CAW         27.5350    16.9920    -3.5680 ca         1 JQ1      -0.175900
     23 CAX         26.4340    15.5120     0.4630 cd         1 JQ1      -0.157300
     24 CAY         26.6610    15.5490    -0.8890 cc         1 JQ1      -0.066300
     25 CAZ         30.8770    16.5640    -0.9420 cc         1 JQ1       0.003400
     26 CBA         27.9290    16.1370    -1.2100 cc         1 JQ1      -0.160900
     27 CBB         28.6220    16.5060    -0.0760 cd         1 JQ1      -0.228200
     28 CBC         30.5720    15.5340    -1.9660 c3         1 JQ1       0.179800
     29 NBD         29.9330    17.0150    -0.0810 na         1 JQ1      -0.032300
     30 CBE         29.7760    12.1530    -4.1510 c3         1 JQ1       0.209000
     31 HAA         30.4640    19.6160     2.0420 hc         1 JQ1       0.096033
     32 HAAA        28.8790    19.1890     1.3560 hc         1 JQ1       0.096033
     33 HAAB        29.6130    18.1650     2.5980 hc         1 JQ1       0.096033
     34 HAB         25.3480    15.0520     2.2590 hc         1 JQ1       0.070033
     35 HABA        24.3390    15.5450     0.8940 hc         1 JQ1       0.070033
     36 HABB        25.0640    13.9370     0.9180 hc         1 JQ1       0.070033
     37 HAC         24.9450    15.7150    -2.1830 hc         1 JQ1       0.063033
     38 HACA        26.2150    14.6580    -2.7940 hc         1 JQ1       0.063033
     39 HACB        25.1780    14.1210    -1.4700 hc         1 JQ1       0.063033
     40 HAD         28.3970    13.5870    -4.9880 hc         1 JQ1       0.054811
     41 HADA        29.8050    13.2660    -6.0190 hc         1 JQ1       0.054811
     42 HADB        28.5150    12.0650    -5.8780 hc         1 JQ1       0.054811
     43 HAE         31.3240    10.7190    -3.6950 hc         1 JQ1       0.054811
     44 HAEA        30.2730    10.2730    -5.0450 hc         1 JQ1       0.054811
     45 HAEB        31.5210    11.5070    -5.2720 hc         1 JQ1       0.054811
     46 HAF         29.2390    11.1350    -2.3190 hc         1 JQ1       0.054811
     47 HAFA        28.0520    12.3390    -2.8600 hc         1 JQ1       0.054811
     48 HAFB        28.1840    10.7840    -3.6990 hc         1 JQ1       0.054811
     49 HAI         24.9210    19.1550    -3.7970 ha         1 JQ1       0.146000
     50 HAJ         26.9660    17.0430    -6.9200 ha         1 JQ1       0.146000
     51 HAK         26.4000    18.1120    -2.1220 ha         1 JQ1       0.128500
     52 HAL         28.4680    16.0200    -5.2380 ha         1 JQ1       0.128500
     53 HAM         32.4630    14.4950    -1.9960 hc         1 JQ1       0.086200
     54 HAMA        32.3410    15.8010    -3.1890 hc         1 JQ1       0.086200
     55 HNAP        32.8520    17.2240    -1.1550 hn         1 JQ1       0.439000
     56 HBC         30.0720    14.7150    -1.4370 h1         1 JQ1       0.115700
     57 CLAH        24.8000    18.8760    -6.6330 cl         1 JQ1      -0.169000
@<TRIPOS>BOND
     1     1    21 1   
     2     1    31 1   
     3     1    32 1   
     4     1    33 1   
     5     2    23 1   
     6     2    34 1   
     7     2    35 1   
     8     2    36 1   
     9     3    24 1   
    10     3    37 1   
    11     3    38 1   
    12     3    39 1   
    13     4    30 1   
    14     4    40 1   
    15     4    41 1   
    16     4    42 1   
    17     5    30 1   
    18     5    43 1   
    19     5    44 1   
    20     5    45 1   
    21     6    30 1   
    22     6    46 1   
    23     6    47 1   
    24     6    48 1   
    25     7    18 2   
    26     8    10 ar  
    27     8    20 ar  
    28     8    49 1   
    29     9    11 ar  
    30     9    20 ar  
    31     9    50 1   
    32    10    22 ar  
    33    10    51 1   
    34    11    22 ar  
    35    11    52 1   
    36    12    18 1   
    37    12    28 1   
    38    12    53 1   
    39    12    54 1   
    40    13    19 2   
    41    13    28 1   
    42    14    15 1   
    43    14    21 2   
    44    15    25 2   
    45    15    55 1   
    46    16    18 1   
    47    16    30 1   
    48    17    23 1   
    49    17    27 1   
    50    19    22 1   
    51    19    26 1   
    52    20    57 1   
    53    21    29 1   
    54    23    24 2   
    55    24    26 1   
    56    25    28 1   
    57    25    29 1   
    58    26    27 2   
    59    27    29 1   
    60    28    56 1   
@<TRIPOS>SUBSTRUCTURE
     1 JQ1         1 TEMP              0 ****  ****    0 ROOT
