@<TRIPOS>MOLECULE
JQ1
   57    60     1     0     0
SMALL
No Charge or Current Charge


@<TRIPOS>ATOM
      1 CAA         29.8990    18.6070     1.6810 c3         1 JQ1      -0.147400
      2 CAB         24.7960    15.3720     1.0470 c3         1 JQ1      -0.038800
      3 CAC         25.2990    15.3960    -2.0780 c3         1 JQ1      -0.037800
      4 CAD         28.9240    11.3390    -4.2320 c3         1 JQ1      -0.109433
      5 CAE         31.3530    10.8610    -4.9870 c3         1 JQ1      -0.109433
      6 CAF         30.5780    10.2470    -2.6530 c3         1 JQ1      -0.109433
      7 OAG         30.5130    13.8110    -5.1460 o          1 JQ1      -0.454000
      8 CAI         25.8320    19.5030    -3.9270 ca         1 JQ1      -0.105500
      9 CAJ         27.1450    18.7340    -5.8180 ca         1 JQ1      -0.105500
     10 CAK         26.4160    18.5140    -3.1160 ca         1 JQ1      -0.060000
     11 CAL         27.7320    17.7440    -5.0120 ca         1 JQ1      -0.060000
     12 CAM         31.2740    14.8580    -3.0950 c3         1 JQ1      -0.134400
     13 NAN         29.0780    15.9540    -3.2060 n2         1 JQ1      -0.580900
     14 NAO         31.6550    17.7750     0.1830 n2         1 JQ1      -0.444800
     15 NAP         31.7130    16.9590    -0.9360 na         1 JQ1      -0.013900
     16 OAQ         30.8350    12.5150    -3.2530 os         1 JQ1      -0.494100
     17 SAR         27.4090    16.4700     1.2840 ss         1 JQ1       0.318000
     18 CAS         30.8340    13.6900    -3.9720 c          1 JQ1       0.620100
     19 CAT         28.0120    16.5630    -2.7810 ce         1 JQ1       0.580500
     20 CAU         26.1940    19.6100    -5.2770 ca         1 JQ1       0.152000
     21 CAV         30.4030    17.7890     0.5280 cc         1 JQ1       0.478800
     22 CAW         27.3660    17.6090    -3.6500 ca         1 JQ1      -0.175900
     23 CAX         26.0380    15.8570     0.3390 cd         1 JQ1      -0.157300
     24 CAY         26.2700    15.8780    -1.0250 cc         1 JQ1      -0.066300
     25 CAZ         30.4580    16.4780    -1.2730 cc         1 JQ1       0.003400
     26 CBA         27.5530    16.4130    -1.3840 cc         1 JQ1      -0.160900
     27 CBB         28.2440    16.7480    -0.2410 cd         1 JQ1      -0.228200
     28 CBC         30.0820    15.4110    -2.2840 c3         1 JQ1       0.179800
     29 NBD         29.6130    17.0310    -0.3310 na         1 JQ1      -0.032300
     30 CBE         30.4150    11.2500    -3.8160 c3         1 JQ1       0.209000
     31 HAA         30.6240    19.3820     1.9540 hc         1 JQ1       0.096033
     32 HAAA        28.9590    19.1070     1.4250 hc         1 JQ1       0.096033
     33 HAAB        29.7360    17.9760     2.5610 hc         1 JQ1       0.096033
     34 HAB         24.8260    15.6040     2.1180 hc         1 JQ1       0.070033
     35 HABA        23.8970    15.8430     0.6320 hc         1 JQ1       0.070033
     36 HABB        24.6840    14.2860     0.9450 hc         1 JQ1       0.070033
     37 HAC         24.6960    16.2250    -2.4640 hc         1 JQ1       0.063033
     38 HACA        25.8180    14.9300    -2.9240 hc         1 JQ1       0.063033
     39 HACB        24.6110    14.6450    -1.6730 hc         1 JQ1       0.063033
     40 HAD         28.3220    11.7830    -3.4300 hc         1 JQ1       0.054811
     41 HADA        28.7860    11.9370    -5.1390 hc         1 JQ1       0.054811
     42 HADB        28.5260    10.3390    -4.4400 hc         1 JQ1       0.054811
     43 HAE         32.4040    10.9810    -4.6990 hc         1 JQ1       0.054811
     44 HAEA        31.1970     9.8130    -5.2680 hc         1 JQ1       0.054811
     45 HAEB        31.1670    11.4660    -5.8810 hc         1 JQ1       0.054811
     46 HAF         31.6210    10.2080    -2.3170 hc         1 JQ1       0.054811
     47 HAFA        29.9550    10.5360    -1.7990 hc         1 JQ1       0.054811
     48 HAFB        30.2830     9.2380    -2.9630 hc         1 JQ1       0.054811
     49 HAI         25.1020    20.1890    -3.5070 ha         1 JQ1       0.146000
     50 HAJ         27.4290    18.8230    -6.8640 ha         1 JQ1       0.146000
     51 HAK         26.1250    18.4660    -2.0680 ha         1 JQ1       0.128500
     52 HAL         28.4680    17.0760    -5.4570 ha         1 JQ1       0.128500
     53 HAM         32.0000    14.4790    -2.3670 hc         1 JQ1       0.086200
     54 HAMA        31.7060    15.6500    -3.7170 hc         1 JQ1       0.086200
     55 HNAP        32.6160    16.7660    -1.3700 hn         1 JQ1       0.439000
     56 HBC         29.6520    14.5700    -1.7170 h1         1 JQ1       0.115700
     57 ClAH        25.4630    20.8500    -6.2880 cl         1 JQ1      -0.169000
@<TRIPOS>BOND
     1     1    21 1   
     2     1    31 1   
     3     1    32 1   
     4     1    33 1   
     5     2    23 1   
     6     2    34 1   
     7     2    35 1   
     8     2    36 1   
     9     3    24 1   
    10     3    37 1   
    11     3    38 1   
    12     3    39 1   
    13     4    30 1   
    14     4    40 1   
    15     4    41 1   
    16     4    42 1   
    17     5    30 1   
    18     5    43 1   
    19     5    44 1   
    20     5    45 1   
    21     6    30 1   
    22     6    46 1   
    23     6    47 1   
    24     6    48 1   
    25     7    18 2   
    26     8    10 ar  
    27     8    20 ar  
    28     8    49 1   
    29     9    11 ar  
    30     9    20 ar  
    31     9    50 1   
    32    10    22 ar  
    33    10    51 1   
    34    11    22 ar  
    35    11    52 1   
    36    12    18 1   
    37    12    28 1   
    38    12    53 1   
    39    12    54 1   
    40    13    19 2   
    41    13    28 1   
    42    14    15 1   
    43    14    21 2   
    44    15    25 2   
    45    15    55 1   
    46    16    18 1   
    47    16    30 1   
    48    17    23 1   
    49    17    27 1   
    50    19    22 1   
    51    19    26 1   
    52    20    57 1   
    53    21    29 1   
    54    23    24 2   
    55    24    26 1   
    56    25    28 1   
    57    25    29 1   
    58    26    27 2   
    59    27    29 1   
    60    28    56 1   
@<TRIPOS>SUBSTRUCTURE
     1 JQ1         1 TEMP              0 ****  ****    0 ROOT
