@<TRIPOS>MOLECULE
JQ2
   80    84     1     0     0
SMALL
bcc


@<TRIPOS>ATOM
      1 O2A          1.9890     6.5510     1.4570 o          1 JQ2      -0.842300
      2 CGA          1.5180     6.0670     0.4070 c          1 JQ2       0.931600
      3 O1A          1.5030     6.6070    -0.7160 o          1 JQ2      -0.842300
      4 CBA          0.8890     4.6670     0.5390 c3         1 JQ2      -0.204400
      5 CAA          0.3900     4.0550    -0.7690 c3         1 JQ2      -0.021200
      6 C2A         -0.2120     2.7050    -0.5710 cc         1 JQ2      -0.010200
      7 C3A         -1.5250     2.3740    -0.4060 cd         1 JQ2      -0.290800
      8 CEA         -2.7170     3.2690    -0.4070 c3         1 JQ2      -0.014200
      9 CEB         -3.8940     2.6950    -1.1840 c3         1 JQ2       0.111000
     10 N_B         -4.5740     1.6210    -0.4930 n          1 JQ2      -0.380000
     11 C4B         -5.9480     1.5360    -0.4150 c          1 JQ2       0.698700
     12 O_B         -6.7260     2.4050    -0.7600 o          1 JQ2      -0.631500
     13 C3B         -6.2690     0.2070     0.1410 cc         1 JQ2      -0.215400
     14 CAB         -7.6690    -0.2010     0.4360 c3         1 JQ2      -0.004200
     15 CBB         -8.1590     0.3480     1.7760 c3         1 JQ2      -0.085100
     16 C2B         -5.1110    -0.4490     0.3370 cd         1 JQ2      -0.023200
     17 CMB         -4.9050    -1.8060     0.9070 c3         1 JQ2      -0.054900
     18 C1B         -4.0090     0.4350    -0.0570 cd         1 JQ2       0.025600
     19 CHB         -2.7020     0.1080     0.0300 cf         1 JQ2      -0.176600
     20 C4A         -1.5570     0.9390    -0.2080 cd         1 JQ2       0.473900
     21 N_A         -0.3480     0.4150    -0.2240 nc         1 JQ2      -0.647300
     22 C1A          0.5210     1.4610    -0.4510 cc         1 JQ2       0.005600
     23 CHA          1.8810     1.2960    -0.5460 cf         1 JQ2       0.094800
     24 C4D          2.5560     0.0670    -0.4220 cd         1 JQ2      -0.131100
     25 N_D          1.8880    -1.1010    -0.1940 na         1 JQ2      -0.128100
     26 C3D          3.9290    -0.2340    -0.4840 cc         1 JQ2      -0.040300
     27 CAD          5.0340     0.7520    -0.6630 c3         1 JQ2      -0.011100
     28 CBD          5.5990     1.2110     0.6800 c3         1 JQ2      -0.203400
     29 CGD          6.7570     2.2220     0.5990 c          1 JQ2       0.932600
     30 O1D          7.1320     2.5880    -0.5310 o          1 JQ2      -0.843800
     31 O2D          7.2260     2.5950     1.6940 o          1 JQ2      -0.843800
     32 C2D          4.0540    -1.6110    -0.2770 cc         1 JQ2      -0.138300
     33 CMD          5.3220    -2.3960    -0.2350 c3         1 JQ2      -0.014800
     34 C1D          2.7580    -2.1300    -0.1000 cd         1 JQ2      -0.096100
     35 CHD          2.3860    -3.4880     0.1460 cf         1 JQ2      -0.050200
     36 C4C          1.1500    -4.0370     0.1290 cc         1 JQ2      -0.020400
     37 N_C         -0.0500    -3.4280    -0.2030 ns         1 JQ2      -0.474100
     38 C1C         -1.0930    -4.3210    -0.1060 c          1 JQ2       0.697700
     39 O_C         -2.2510    -4.0820    -0.3940 o          1 JQ2      -0.631500
     40 C2C         -0.5110    -5.5800     0.3940 cd         1 JQ2      -0.211400
     41 CMC         -1.3210    -6.7940     0.6770 c3         1 JQ2      -0.022900
     42 C3C          0.8220    -5.4070     0.5140 cc         1 JQ2      -0.034200
     43 CAC          1.8240    -6.4280     0.9340 c3         1 JQ2      -0.029200
     44 CBC          2.4730    -7.1160    -0.2680 c3         1 JQ2      -0.086100
     45 H2           1.6200     4.0000     1.0080 hc         1 JQ2       0.025700
     46 H3           0.0610     4.7270     1.2540 hc         1 JQ2       0.025700
     47 H4          -0.3450     4.7220    -1.2240 hc         1 JQ2       0.054700
     48 H5           1.2170     3.9900    -1.4810 hc         1 JQ2       0.054700
     49 H6          -3.0420     3.4940     0.6140 hc         1 JQ2       0.062700
     50 H7          -2.4510     4.2270    -0.8580 hc         1 JQ2       0.062700
     51 H8          -4.6360     3.4740    -1.3510 h1         1 JQ2       0.053200
     52 H9          -3.5600     2.3490    -2.1670 h1         1 JQ2       0.053200
     53 H10         -8.3230     0.1570    -0.3620 hc         1 JQ2       0.042700
     54 H11         -7.7470    -1.2900     0.4350 hc         1 JQ2       0.042700
     55 H12         -9.1990     0.0710     1.9500 hc         1 JQ2       0.032367
     56 H13         -7.5630    -0.0450     2.6010 hc         1 JQ2       0.032367
     57 H14         -8.0950     1.4360     1.8040 hc         1 JQ2       0.032367
     58 H15         -5.8490    -2.3360     1.0120 hc         1 JQ2       0.054367
     59 H16         -4.2450    -2.4100     0.2850 hc         1 JQ2       0.054367
     60 H17         -4.4470    -1.7450     1.8960 hc         1 JQ2       0.054367
     61 H19         -2.4790    -0.9080     0.3320 ha         1 JQ2       0.144000
     62 H22          2.4900     2.1720    -0.7350 ha         1 JQ2       0.183000
     63 H24          0.8860    -1.0660    -0.0240 hn         1 JQ2       0.342700
     64 H25          5.8300     0.3070    -1.2640 hc         1 JQ2       0.055200
     65 H26          4.6800     1.6170    -1.2280 hc         1 JQ2       0.055200
     66 H27          4.7950     1.6500     1.2810 hc         1 JQ2       0.023700
     67 H28          5.9390     0.3410     1.2520 hc         1 JQ2       0.023700
     68 H30          5.6860    -2.5230     0.7870 hc         1 JQ2       0.034367
     69 H31          5.2040    -3.3920    -0.6630 hc         1 JQ2       0.034367
     70 H32          6.1120    -1.8950    -0.7950 hc         1 JQ2       0.034367
     71 H33          3.2040    -4.1550     0.3840 ha         1 JQ2       0.141000
     72 H35         -2.3700    -6.6300     0.4390 hc         1 JQ2       0.039700
     73 H36         -0.9760    -7.6490     0.0920 hc         1 JQ2       0.039700
     74 H37         -1.2590    -7.0810     1.7280 hc         1 JQ2       0.039700
     75 H38          2.5950    -5.9710     1.5580 hc         1 JQ2       0.050200
     76 H39          1.3300    -7.1760     1.5570 hc         1 JQ2       0.050200
     77 H40          2.9960    -6.4020    -0.9040 hc         1 JQ2       0.035033
     78 H41          3.1950    -7.8620     0.0640 hc         1 JQ2       0.035033
     79 H42          1.7250    -7.6210    -0.8810 hc         1 JQ2       0.035033
     80 H18         -0.1420    -2.5880    -0.7530 hn         1 JQ2       0.349500
@<TRIPOS>BOND
     1     1     2 1   
     2     2     3 1   
     3     2     4 1   
     4     4     5 1   
     5     4    45 1   
     6     4    46 1   
     7     5     6 1   
     8     5    47 1   
     9     5    48 1   
    10     6     7 2   
    11     6    22 1   
    12     7     8 1   
    13     7    20 1   
    14     8     9 1   
    15     8    49 1   
    16     8    50 1   
    17     9    10 1   
    18     9    51 1   
    19     9    52 1   
    20    10    11 1   
    21    10    18 1   
    22    11    12 2   
    23    11    13 1   
    24    13    14 1   
    25    13    16 2   
    26    14    15 1   
    27    14    53 1   
    28    14    54 1   
    29    15    55 1   
    30    15    56 1   
    31    15    57 1   
    32    16    17 1   
    33    16    18 1   
    34    17    58 1   
    35    17    59 1   
    36    17    60 1   
    37    18    19 2   
    38    19    20 1   
    39    19    61 1   
    40    20    21 2   
    41    21    22 1   
    42    22    23 2   
    43    23    24 1   
    44    23    62 1   
    45    24    25 1   
    46    24    26 2   
    47    25    34 1   
    48    25    63 1   
    49    26    27 1   
    50    26    32 1   
    51    27    28 1   
    52    27    64 1   
    53    27    65 1   
    54    28    29 1   
    55    28    66 1   
    56    28    67 1   
    57    29    30 1   
    58    29    31 1   
    59    32    33 1   
    60    32    34 2   
    61    33    68 1   
    62    33    69 1   
    63    33    70 1   
    64    34    35 1   
    65    35    36 2   
    66    35    71 1   
    67    36    37 1   
    68    36    42 1   
    69    37    38 1   
    70    37    80 1   
    71    38    39 2   
    72    38    40 1   
    73    40    41 1   
    74    40    42 2   
    75    41    72 1   
    76    41    73 1   
    77    41    74 1   
    78    42    43 1   
    79    43    44 1   
    80    43    75 1   
    81    43    76 1   
    82    44    77 1   
    83    44    78 1   
    84    44    79 1   
@<TRIPOS>SUBSTRUCTURE
     1 JQ2         1 TEMP              0 ****  ****    0 ROOT
