@<TRIPOS>MOLECULE
JQ2
   80    84     1     0     0
SMALL
No Charge or Current Charge


@<TRIPOS>ATOM
      1 O2A          2.7550     6.2830    -0.0690 o          1 JQ2      -0.737000
      2 CGA          1.6240     6.2260     0.3880 c          1 JQ2       0.721000
      3 O1A          0.8820     7.1920     0.4800 o          1 JQ2      -0.737000
      4 CBA          1.0800     4.8510     0.8070 c3         1 JQ2      -0.204400
      5 CAA          0.3980     4.1650    -0.3980 c3         1 JQ2      -0.021200
      6 C2A         -0.2420     2.8440    -0.0360 cc         1 JQ2      -0.010200
      7 C3A         -1.5400     2.5930     0.3180 cd         1 JQ2      -0.290800
      8 CEA         -2.7020     3.5320     0.4640 c3         1 JQ2      -0.014200
      9 CEB         -3.8570     3.1870    -0.4950 c3         1 JQ2       0.111000
     10 N_B         -4.5860     1.9150    -0.2440 n          1 JQ2      -0.313000
     11 C4B         -5.8840     1.7540    -0.7190 c          1 JQ2       0.556200
     12 O_B         -6.5470     2.5740    -1.3420 o          1 JQ2      -0.556000
     13 C3B         -6.2550     0.4060    -0.2960 cc         1 JQ2      -0.215400
     14 CAB         -7.6230    -0.1410    -0.6260 c3         1 JQ2      -0.004200
     15 CBB         -8.6560     0.1510     0.4770 c3         1 JQ2      -0.085100
     16 C2B         -5.2020    -0.1830     0.3690 cd         1 JQ2      -0.023200
     17 CMB         -5.1680    -1.5780     0.9450 c3         1 JQ2      -0.054900
     18 C1B         -4.1120     0.7650     0.3910 cd         1 JQ2       0.025600
     19 CHB         -2.7850     0.4380     0.9260 cf         1 JQ2      -0.226600
     20 C4A         -1.6130     1.1970     0.5350 cd         1 JQ2       0.473900
     21 N_A         -0.4530     0.5840     0.3480 nc         1 JQ2      -0.647300
     22 C1A          0.4320     1.5800    -0.0080 cc         1 JQ2       0.005600
     23 CHA          1.7510     1.3020    -0.2820 cf         1 JQ2       0.044800
     24 C4D          2.4310    -0.0020    -0.2690 cd         1 JQ2      -0.181800
     25 N_D          1.8300    -1.2110     0.0730 na         1 JQ2      -0.077000
     26 C3D          3.7360    -0.2980    -0.5700 cc         1 JQ2      -0.040300
     27 CAD          4.8230     0.6580    -1.0100 c3         1 JQ2      -0.011100
     28 CBD          5.6020     1.2710     0.1780 c3         1 JQ2      -0.203400
     29 CGD          6.7450     2.1530    -0.3470 c          1 JQ2       0.722000
     30 O1D          6.5070     3.3280    -0.5820 o          1 JQ2      -0.738500
     31 O2D          7.8280     1.6280    -0.5580 o          1 JQ2      -0.738500
     32 C2D          3.9270    -1.6990    -0.4080 cc         1 JQ2      -0.138300
     33 CMD          5.2490    -2.3860    -0.6690 c3         1 JQ2      -0.014800
     34 C1D          2.7380    -2.2680    -0.0160 cd         1 JQ2      -0.146800
     35 CHD          2.4660    -3.6880     0.2440 cf         1 JQ2      -0.100200
     36 C4C          1.2790    -4.3650     0.3290 cc         1 JQ2      -0.020400
     37 N_C          0.0390    -3.8320     0.0560 ns         1 JQ2      -0.407100
     38 C1C         -0.9990    -4.6940     0.2200 c          1 JQ2       0.555200
     39 O_C         -2.1840    -4.4640     0.0320 o          1 JQ2      -0.556000
     40 C2C         -0.3280    -5.9330     0.6590 cd         1 JQ2      -0.211400
     41 CMC         -1.1230    -7.1800     0.9620 c3         1 JQ2      -0.022900
     42 C3C          1.0390    -5.7290     0.7200 cc         1 JQ2      -0.034200
     43 CAC          2.1110    -6.7110     1.1240 c3         1 JQ2      -0.029200
     44 CBC          2.8230    -7.3460    -0.0840 c3         1 JQ2      -0.086100
     45 H2           1.8990     4.1870     1.1100 hc         1 JQ2       0.025700
     46 H3           0.2990     4.9650     1.5690 hc         1 JQ2       0.025700
     47 H4          -0.3610     4.8390    -0.8130 hc         1 JQ2       0.054700
     48 H5           1.1300     4.0220    -1.2020 hc         1 JQ2       0.054700
     49 H6          -3.0770     3.5110     1.4950 hc         1 JQ2       0.062700
     50 H7          -2.3910     4.5660     0.2760 hc         1 JQ2       0.062700
     51 H8          -4.5820     4.0100    -0.4450 h1         1 JQ2       0.053200
     52 H9          -3.4680     3.1630    -1.5210 h1         1 JQ2       0.053200
     53 H10         -7.9840     0.2820    -1.5710 hc         1 JQ2       0.042700
     54 H11         -7.5660    -1.2250    -0.7840 hc         1 JQ2       0.042700
     55 H12         -9.6340    -0.2640     0.2060 hc         1 JQ2       0.032367
     56 H13         -8.3430    -0.2980     1.4270 hc         1 JQ2       0.032367
     57 H14         -8.7680     1.2320     0.6250 hc         1 JQ2       0.032367
     58 H15         -6.1700    -2.0170     1.0080 hc         1 JQ2       0.054367
     59 H16         -4.5500    -2.2410     0.3270 hc         1 JQ2       0.054367
     60 H17         -4.7510    -1.5750     1.9590 hc         1 JQ2       0.054367
     61 H19         -2.6010    -0.5800     1.2590 ha         1 JQ2       0.194000
     62 H22          2.3630     2.1650    -0.5400 ha         1 JQ2       0.233000
     63 H24          0.8670    -1.2720     0.3870 hn         1 JQ2       0.393000
     64 H25          5.5270     0.1470    -1.6770 hc         1 JQ2       0.055200
     65 H26          4.3880     1.4650    -1.6100 hc         1 JQ2       0.055200
     66 H27          4.8730     1.8720     0.7350 hc         1 JQ2       0.023700
     67 H28          6.0030     0.4240     0.7470 hc         1 JQ2       0.023700
     68 H30          6.0540    -1.9220    -0.0880 hc         1 JQ2       0.034367
     69 H31          5.2240    -3.4480    -0.4030 hc         1 JQ2       0.034367
     70 H32          5.5170    -2.3210    -1.7310 hc         1 JQ2       0.034367
     71 H33          3.3420    -4.2990     0.4540 ha         1 JQ2       0.191000
     72 H35         -2.0800    -7.1900     0.4250 hc         1 JQ2       0.039700
     73 H36         -0.5730    -8.0810     0.6660 hc         1 JQ2       0.039700
     74 H37         -1.3390    -7.2550     2.0340 hc         1 JQ2       0.039700
     75 H38          2.8520    -6.2160     1.7630 hc         1 JQ2       0.050200
     76 H39          1.6730    -7.5090     1.7360 hc         1 JQ2       0.050200
     77 H40          3.3090    -6.5780    -0.6980 hc         1 JQ2       0.035033
     78 H41          3.5900    -8.0540     0.2510 hc         1 JQ2       0.035033
     79 H42          2.1050    -7.8870    -0.7120 hc         1 JQ2       0.035033
     80 H18         -0.1290    -2.9110    -0.3240 hn         1 JQ2       0.349500
@<TRIPOS>BOND
     1     1     2 1   
     2     2     3 1   
     3     2     4 1   
     4     4     5 1   
     5     4    45 1   
     6     4    46 1   
     7     5     6 1   
     8     5    47 1   
     9     5    48 1   
    10     6     7 2   
    11     6    22 1   
    12     7     8 1   
    13     7    20 1   
    14     8     9 1   
    15     8    49 1   
    16     8    50 1   
    17     9    10 1   
    18     9    51 1   
    19     9    52 1   
    20    10    11 1   
    21    10    18 1   
    22    11    12 2   
    23    11    13 1   
    24    13    14 1   
    25    13    16 2   
    26    14    15 1   
    27    14    53 1   
    28    14    54 1   
    29    15    55 1   
    30    15    56 1   
    31    15    57 1   
    32    16    17 1   
    33    16    18 1   
    34    17    58 1   
    35    17    59 1   
    36    17    60 1   
    37    18    19 2   
    38    19    20 1   
    39    19    61 1   
    40    20    21 2   
    41    21    22 1   
    42    22    23 2   
    43    23    24 1   
    44    23    62 1   
    45    24    25 1   
    46    24    26 2   
    47    25    34 1   
    48    25    63 1   
    49    26    27 1   
    50    26    32 1   
    51    27    28 1   
    52    27    64 1   
    53    27    65 1   
    54    28    29 1   
    55    28    66 1   
    56    28    67 1   
    57    29    30 1   
    58    29    31 1   
    59    32    33 1   
    60    32    34 2   
    61    33    68 1   
    62    33    69 1   
    63    33    70 1   
    64    34    35 1   
    65    35    36 2   
    66    35    71 1   
    67    36    37 1   
    68    36    42 1   
    69    37    38 1   
    70    37    80 1   
    71    38    39 2   
    72    38    40 1   
    73    40    41 1   
    74    40    42 2   
    75    41    72 1   
    76    41    73 1   
    77    41    74 1   
    78    42    43 1   
    79    43    44 1   
    80    43    75 1   
    81    43    76 1   
    82    44    77 1   
    83    44    78 1   
    84    44    79 1   
@<TRIPOS>SUBSTRUCTURE
     1 JQ2         1 TEMP              0 ****  ****    0 ROOT
