@<TRIPOS>MOLECULE
JQ3
   29    30     1     0     0
SMALL
abcg2


@<TRIPOS>ATOM
      1 C4          13.4350    36.1490   -13.5550 ca         1 JQ3       0.096400
      2 C5          13.6490    38.7450   -12.4150 c3         1 JQ3       0.165600
      3 C8          13.9930    40.1680   -12.0230 c5         1 JQ3      -0.067700
      4 C10         13.1380    40.5920   -10.8020 c5         1 JQ3      -0.075900
      5 N12         14.0310    33.4920   -15.7680 nv         1 JQ3      -1.043900
      6 C13         14.1250    41.1320    -9.7640 c5         1 JQ3      -0.081400
      7 C1          14.2410    37.1540   -14.0700 ca         1 JQ3      -0.018900
      8 O2          14.3660    38.4070   -13.5910 os         1 JQ3      -0.334100
      9 C3          14.9870    36.8060   -15.1940 ca         1 JQ3       0.096400
     10 N6          14.9370    35.6100   -15.7440 nb         1 JQ3      -0.212500
     11 N7          13.3790    34.9390   -14.1000 nb         1 JQ3      -0.212500
     12 C9          14.1260    34.7120   -15.1750 ca         1 JQ3       0.330900
     13 C11         15.4600    40.3290   -11.5680 c5         1 JQ3      -0.075900
     14 C14         15.3980    40.3400   -10.0420 c5         1 JQ3      -0.081400
     15 H1          12.8120    36.3030   -12.6810 h4         1 JQ3       0.029100
     16 H2          12.5700    38.6530   -12.5910 h1         1 JQ3       0.033700
     17 H3          13.9080    38.0570   -11.5980 h1         1 JQ3       0.033700
     18 H4          13.7840    40.8160   -12.8780 hc         1 JQ3       0.065700
     19 H5          12.3690    41.3160   -11.0710 hc         1 JQ3       0.046450
     20 H6          12.6140    39.7230   -10.3910 hc         1 JQ3       0.046450
     21 H7          14.7770    33.2270   -16.3890 hn         1 JQ3       0.481500
     22 H8          13.6530    32.7430   -15.2120 hn         1 JQ3       0.481500
     23 H9          14.3100    42.1960    -9.9340 hc         1 JQ3       0.044450
     24 H10         13.7580    41.0270    -8.7420 hc         1 JQ3       0.044450
     25 H11         15.6480    37.5360   -15.6530 h4         1 JQ3       0.029100
     26 H12         16.1160    39.5540   -11.9670 hc         1 JQ3       0.046450
     27 H13         15.8520    41.2850   -11.9210 hc         1 JQ3       0.046450
     28 H14         15.2950    39.3200    -9.6580 hc         1 JQ3       0.044450
     29 H15         16.2880    40.7710    -9.5830 hc         1 JQ3       0.044450
@<TRIPOS>BOND
     1     1     7 ar  
     2     1    11 ar  
     3     1    15 1   
     4     2     3 1   
     5     2     8 1   
     6     2    16 1   
     7     2    17 1   
     8     3     4 1   
     9     3    13 1   
    10     3    18 1   
    11     4     6 1   
    12     4    19 1   
    13     4    20 1   
    14     5    12 1   
    15     5    21 1   
    16     5    22 1   
    17     6    14 1   
    18     6    23 1   
    19     6    24 1   
    20     7     8 1   
    21     7     9 ar  
    22     9    10 ar  
    23     9    25 1   
    24    10    12 ar  
    25    11    12 ar  
    26    13    14 1   
    27    13    26 1   
    28    13    27 1   
    29    14    28 1   
    30    14    29 1   
@<TRIPOS>SUBSTRUCTURE
     1 JQ3         1 TEMP              0 ****  ****    0 ROOT
