@<TRIPOS>MOLECULE
JQ3
   29    30     1     0     0
SMALL
No Charge or Current Charge


@<TRIPOS>ATOM
      1 C4          13.2810    36.0790   -13.8490 ca         1 JQ3       0.096400
      2 C5          13.5810    38.5050   -12.2630 c3         1 JQ3       0.165600
      3 C8          14.0510    39.8440   -11.6500 c5         1 JQ3      -0.067700
      4 C10         13.1960    40.3290   -10.4520 c5         1 JQ3      -0.075900
      5 N12         13.9750    33.6590   -16.3060 nv         1 JQ3      -1.043900
      6 C13         14.0170    41.5490    -9.9470 c5         1 JQ3      -0.081400
      7 C1          14.3260    37.0070   -14.0710 ca         1 JQ3      -0.018900
      8 O2          14.4830    38.1630   -13.3300 os         1 JQ3      -0.334100
      9 C3          15.2370    36.7130   -15.1040 ca         1 JQ3       0.096400
     10 N6          15.1220    35.5950   -15.8520 nb         1 JQ3      -0.212500
     11 N7          13.1650    34.9610   -14.5970 nb         1 JQ3      -0.212500
     12 C9          14.0910    34.7850   -15.5550 ca         1 JQ3       0.330900
     13 C11         15.4380    39.7960   -10.9580 c5         1 JQ3      -0.075900
     14 C14         15.5050    41.1880   -10.2660 c5         1 JQ3      -0.081400
     15 H1          12.5290    36.2190   -13.0750 h4         1 JQ3       0.029100
     16 H2          12.5580    38.6210   -12.6440 h1         1 JQ3       0.033700
     17 H3          13.5820    37.7270   -11.4880 h1         1 JQ3       0.033700
     18 H4          14.0390    40.5840   -12.4600 hc         1 JQ3       0.065700
     19 H5          12.1780    40.6090   -10.7490 hc         1 JQ3       0.046450
     20 H6          13.1070    39.5570    -9.6780 hc         1 JQ3       0.046450
     21 H7          14.7490    33.3840   -16.9080 hn         1 JQ3       0.481500
     22 H8          13.3370    32.9240   -16.0050 hn         1 JQ3       0.481500
     23 H9          13.7210    42.4650   -10.4710 hc         1 JQ3       0.044450
     24 H10         13.8550    41.7300    -8.8780 hc         1 JQ3       0.044450
     25 H11         16.0680    37.3770   -15.3350 h4         1 JQ3       0.029100
     26 H12         15.4970    38.9820   -10.2240 hc         1 JQ3       0.046450
     27 H13         16.2590    39.6500   -11.6690 hc         1 JQ3       0.046450
     28 H14         16.1260    41.1600    -9.3630 hc         1 JQ3       0.044450
     29 H15         15.9480    41.9380   -10.9320 hc         1 JQ3       0.044450
@<TRIPOS>BOND
     1     1     7 ar  
     2     1    11 ar  
     3     1    15 1   
     4     2     3 1   
     5     2     8 1   
     6     2    16 1   
     7     2    17 1   
     8     3     4 1   
     9     3    13 1   
    10     3    18 1   
    11     4     6 1   
    12     4    19 1   
    13     4    20 1   
    14     5    12 1   
    15     5    21 1   
    16     5    22 1   
    17     6    14 1   
    18     6    23 1   
    19     6    24 1   
    20     7     8 1   
    21     7     9 ar  
    22     9    10 ar  
    23     9    25 1   
    24    10    12 ar  
    25    11    12 ar  
    26    13    14 1   
    27    13    26 1   
    28    13    27 1   
    29    14    28 1   
    30    14    29 1   
@<TRIPOS>SUBSTRUCTURE
     1 JQ3         1 TEMP              0 ****  ****    0 ROOT
