@<TRIPOS>MOLECULE
JQ4
   38    39     1     0     0
SMALL
bcc


@<TRIPOS>ATOM
      1 C10          1.2510    -1.2780    -0.3960 c6         1 JQ4       0.146800
      2 C13         -0.9310    -2.5180    -0.1490 c6         1 JQ4      -0.087900
      3 C17         -2.3950     0.0490    -1.9610 c3         1 JQ4      -0.269300
      4 C01          3.0220     3.1370    -0.0600 c3         1 JQ4      -0.089100
      5 C02          2.5580     1.7470    -0.4780 c3         1 JQ4      -0.101400
      6 C03          1.2950     1.3180     0.2640 c3         1 JQ4       0.144100
      7 O04          1.5160     1.1990     1.6510 oh         1 JQ4      -0.578800
      8 C05          0.5660     0.1090    -0.3650 c6         1 JQ4       0.217500
      9 N06         -0.7470    -0.1020     0.2870 n3         1 JQ4      -0.738500
     10 C07         -0.9360    -1.4260     0.9150 c6         1 JQ4       0.222500
     11 C08          0.2410    -1.6570     1.8550 c6         1 JQ4      -0.087900
     12 C09          1.5220    -1.8050     1.0170 c6         1 JQ4      -0.104400
     13 O11          2.4230    -1.1390    -1.1590 oh         1 JQ4      -0.588800
     14 C12          0.2740    -2.2570    -1.0680 c6         1 JQ4      -0.104400
     15 S14         -2.0520     0.6870    -0.3310 s6         1 JQ4       1.238900
     16 O15         -1.6800     2.0840    -0.5160 o          1 JQ4      -0.604800
     17 O16         -3.1920     0.3740     0.5190 o          1 JQ4      -0.604800
     18 H131        -0.8540    -3.4910     0.3410 hc         1 JQ4       0.060200
     19 H132        -1.8660    -2.5410    -0.7120 hc         1 JQ4       0.060200
     20 H171        -2.6790    -0.9980    -1.9050 h1         1 JQ4       0.098700
     21 H173        -3.2220     0.6310    -2.3630 h1         1 JQ4       0.098700
     22 H172        -1.5260     0.1700    -2.6020 h1         1 JQ4       0.098700
     23 H013         2.2450     3.8840    -0.2390 hc         1 JQ4       0.037367
     24 H011         3.2830     3.1760     0.9970 hc         1 JQ4       0.037367
     25 H012         3.9030     3.4400    -0.6260 hc         1 JQ4       0.037367
     26 H021         3.3610     1.0250    -0.3130 hc         1 JQ4       0.049200
     27 H031         0.5810     2.1390     0.1660 h1         1 JQ4       0.099700
     28 H041         2.3230     0.6960     1.7930 ho         1 JQ4       0.393000
     29 H051         0.4150     0.3780    -1.4210 h1         1 JQ4       0.052700
     30 H071        -1.8620    -1.4110     1.4850 h1         1 JQ4       0.099700
     31 H082         0.3200    -0.8250     2.5520 hc         1 JQ4       0.060200
     32 H081         0.0510    -2.5560     2.4420 hc         1 JQ4       0.060200
     33 H091         1.8110    -2.8570     0.9360 hc         1 JQ4       0.047450
     34 H092         2.3730    -1.3000     1.4770 hc         1 JQ4       0.047450
     35 H111         2.8550    -1.9990    -1.2070 ho         1 JQ4       0.410000
     36 H122        -0.0420    -1.8490    -2.0330 hc         1 JQ4       0.047450
     37 H121         0.8020    -3.1890    -1.2850 hc         1 JQ4       0.047450
     38 H022         2.3590     1.7400    -1.5530 hc         1 JQ4       0.049200
@<TRIPOS>BOND
     1     1     8 1   
     2     1    12 1   
     3     1    13 1   
     4     1    14 1   
     5     2    10 1   
     6     2    14 1   
     7     2    18 1   
     8     2    19 1   
     9     3    15 1   
    10     3    20 1   
    11     3    21 1   
    12     3    22 1   
    13     4     5 1   
    14     4    23 1   
    15     4    24 1   
    16     4    25 1   
    17     5     6 1   
    18     5    26 1   
    19     5    38 1   
    20     6     7 1   
    21     6     8 1   
    22     6    27 1   
    23     7    28 1   
    24     8     9 1   
    25     8    29 1   
    26     9    10 1   
    27     9    15 1   
    28    10    11 1   
    29    10    30 1   
    30    11    12 1   
    31    11    31 1   
    32    11    32 1   
    33    12    33 1   
    34    12    34 1   
    35    13    35 1   
    36    14    36 1   
    37    14    37 1   
    38    15    16 2   
    39    15    17 2   
@<TRIPOS>SUBSTRUCTURE
     1 JQ4         1 TEMP              0 ****  ****    0 ROOT
