@<TRIPOS>MOLECULE
JQ4
   38    39     1     0     0
SMALL
No Charge or Current Charge


@<TRIPOS>ATOM
      1 C10          1.3400    -1.3040    -0.4370 c6         1 JQ4       0.170000
      2 C13         -0.8760    -2.5730    -0.1690 c6         1 JQ4      -0.087900
      3 C17         -2.3040     0.4750    -1.8690 c3         1 JQ4      -0.380100
      4 C01          3.1140     3.1140    -0.2300 c3         1 JQ4      -0.089100
      5 C02          2.6270     1.6750    -0.5090 c3         1 JQ4      -0.101400
      6 C03          1.2070     1.3730     0.0360 c3         1 JQ4       0.167300
      7 O04          1.2050     1.4660     1.4680 oh         1 JQ4      -0.641000
      8 C05          0.4910     0.0430    -0.4370 c6         1 JQ4       0.217500
      9 N06         -0.7610    -0.1540     0.3950 n3         1 JQ4      -0.738500
     10 C07         -0.8770    -1.5250     0.9780 c6         1 JQ4       0.222500
     11 C08          0.3750    -1.7820     1.8710 c6         1 JQ4      -0.087900
     12 C09          1.6870    -1.7030     1.0270 c6         1 JQ4      -0.104400
     13 O11          2.5250    -1.2400    -1.2380 oh         1 JQ4      -0.651000
     14 C12          0.4200    -2.4230    -1.0250 c6         1 JQ4      -0.104400
     15 S14         -2.2130     0.6510    -0.0920 s6         1 JQ4       1.208100
     16 O15         -2.0530     2.0620     0.2680 o          1 JQ4      -0.534000
     17 O16         -3.3290    -0.1130     0.4720 o          1 JQ4      -0.534000
     18 H131        -0.9310    -3.5850     0.2550 hc         1 JQ4       0.060200
     19 H132        -1.7690    -2.4570    -0.7960 hc         1 JQ4       0.060200
     20 H171        -2.1700    -0.5830    -2.1120 h1         1 JQ4       0.098700
     21 H173        -3.2950     0.8260    -2.1750 h1         1 JQ4       0.098700
     22 H172        -1.5230     1.0970    -2.3160 h1         1 JQ4       0.098700
     23 H013         2.4270     3.8490    -0.6670 hc         1 JQ4       0.037367
     24 H011         3.1850     3.3040     0.8470 hc         1 JQ4       0.037367
     25 H012         4.1070     3.2720    -0.6690 hc         1 JQ4       0.037367
     26 H021         3.3480     0.9740    -0.0710 hc         1 JQ4       0.049200
     27 H031         0.5660     2.1750    -0.3560 h1         1 JQ4       0.099700
     28 H041         0.4080     0.9480     1.7250 ho         1 JQ4       0.432000
     29 H051         0.2300     0.2050    -1.4900 h1         1 JQ4       0.052700
     30 H071        -1.7770    -1.6410     1.6010 h1         1 JQ4       0.099700
     31 H082         0.4040    -1.0480     2.6880 hc         1 JQ4       0.060200
     32 H081         0.2960    -2.7670     2.3500 hc         1 JQ4       0.060200
     33 H091         2.1980    -2.6760     1.0450 hc         1 JQ4       0.047450
     34 H092         2.3860    -0.9830     1.4730 hc         1 JQ4       0.047450
     35 H111         2.9600    -2.1170    -1.1690 ho         1 JQ4       0.449000
     36 H122         0.1500    -2.1820    -2.0630 hc         1 JQ4       0.047450
     37 H121         0.9530    -3.3830    -1.0610 hc         1 JQ4       0.047450
     38 H022         2.6340     1.5120    -1.5930 hc         1 JQ4       0.049200
@<TRIPOS>BOND
     1     1     8 1   
     2     1    12 1   
     3     1    13 1   
     4     1    14 1   
     5     2    10 1   
     6     2    14 1   
     7     2    18 1   
     8     2    19 1   
     9     3    15 1   
    10     3    20 1   
    11     3    21 1   
    12     3    22 1   
    13     4     5 1   
    14     4    23 1   
    15     4    24 1   
    16     4    25 1   
    17     5     6 1   
    18     5    26 1   
    19     5    38 1   
    20     6     7 1   
    21     6     8 1   
    22     6    27 1   
    23     7    28 1   
    24     8     9 1   
    25     8    29 1   
    26     9    10 1   
    27     9    15 1   
    28    10    11 1   
    29    10    30 1   
    30    11    12 1   
    31    11    31 1   
    32    11    32 1   
    33    12    33 1   
    34    12    34 1   
    35    13    35 1   
    36    14    36 1   
    37    14    37 1   
    38    15    16 2   
    39    15    17 2   
@<TRIPOS>SUBSTRUCTURE
     1 JQ4         1 TEMP              0 ****  ****    0 ROOT
