@<TRIPOS>MOLECULE
JQ5
   22    21     1     0     0
SMALL
No Charge or Current Charge


@<TRIPOS>ATOM
      1 C4           0.2810    17.9080   -37.6530 c3         1 JQ5      -0.182400
      2 C1           0.2910    18.3310   -36.1690 c          1 JQ5       0.712000
      3 O1          -0.3310    19.3320   -35.8480 o          1 JQ5      -0.755000
      4 O3           0.9620    17.6740   -35.3900 o          1 JQ5      -0.755000
      5 C5           1.4430    18.5830   -38.4380 c3         1 JQ5      -0.155400
      6 C6           2.8370    18.0390   -38.0360 c          1 JQ5       0.468100
      7 O7           3.1610    16.9000   -38.3960 o          1 JQ5      -0.570100
      8 P10          4.1380    19.3180   -37.2500 p5         1 JQ5       1.151400
      9 O11          4.7350    18.7190   -36.0090 o          1 JQ5      -0.816500
     10 O12          5.2410    19.4230   -38.4430 os         1 JQ5      -0.600400
     11 C13          4.9230    19.6220   -39.8350 c3         1 JQ5       0.218600
     12 C14          4.1240    20.9250   -40.0480 c3         1 JQ5      -0.091100
     13 O15          3.4840    20.6390   -36.9710 o          1 JQ5      -0.816500
     14 H1          -0.6390    18.2580   -38.1390 hc         1 JQ5       0.005700
     15 H2           0.4370    16.8260   -37.7520 hc         1 JQ5       0.005700
     16 H4           1.3930    19.6630   -38.2650 hc         1 JQ5       0.037200
     17 H5           1.2910    18.3810   -39.5050 hc         1 JQ5       0.037200
     18 H7           4.3520    18.7730   -40.2320 h1         1 JQ5       0.027700
     19 H8           5.8540    19.6880   -40.4140 h1         1 JQ5       0.027700
     20 H9           4.0590    21.1470   -41.1200 hc         1 JQ5       0.017367
     21 H10          3.1000    20.8350   -39.6700 hc         1 JQ5       0.017367
     22 H11          4.6170    21.7720   -39.5570 hc         1 JQ5       0.017367
@<TRIPOS>BOND
     1     1     2 1   
     2     1     5 1   
     3     1    14 1   
     4     1    15 1   
     5     2     3 1   
     6     2     4 1   
     7     5     6 1   
     8     5    16 1   
     9     5    17 1   
    10     6     7 2   
    11     6     8 1   
    12     8     9 1   
    13     8    10 1   
    14     8    13 1   
    15    10    11 1   
    16    11    12 1   
    17    11    18 1   
    18    11    19 1   
    19    12    20 1   
    20    12    21 1   
    21    12    22 1   
@<TRIPOS>SUBSTRUCTURE
     1 JQ5         1 TEMP              0 ****  ****    0 ROOT
