@<TRIPOS>MOLECULE
JQ5
   22    21     1     0     0
SMALL
abcg2


@<TRIPOS>ATOM
      1 C4           0.3330    17.1620   -37.3140 c3         1 JQ5      -0.182400
      2 C1           0.9370    16.7440   -35.9570 c          1 JQ5       0.712000
      3 O1           1.4350    17.6410   -35.2310 o          1 JQ5      -0.755000
      4 O3           0.8600    15.5190   -35.6740 o          1 JQ5      -0.755000
      5 C5           0.6720    18.5750   -37.7580 c3         1 JQ5      -0.155400
      6 C6           2.1330    18.7960   -38.0730 c          1 JQ5       0.468100
      7 O7           2.9020    17.8730   -38.2800 o          1 JQ5      -0.570100
      8 P10          2.6880    20.5790   -38.1710 p5         1 JQ5       1.151400
      9 O11          2.6160    21.1480   -36.7880 o          1 JQ5      -0.816500
     10 O12          4.2640    20.4580   -38.5310 os         1 JQ5      -0.600400
     11 C13          4.7180    20.1120   -39.8530 c3         1 JQ5       0.218600
     12 C14          6.0190    20.8330   -40.1340 c3         1 JQ5      -0.091100
     13 O15          1.9320    21.2150   -39.3000 o          1 JQ5      -0.816500
     14 H1          -0.7530    17.0600   -37.2280 hc         1 JQ5       0.005700
     15 H2           0.6500    16.4360   -38.0640 hc         1 JQ5       0.005700
     16 H4           0.3710    19.3100   -37.0090 hc         1 JQ5       0.037200
     17 H5           0.1260    18.8380   -38.6720 hc         1 JQ5       0.037200
     18 H7           3.9550    20.3910   -40.5810 h1         1 JQ5       0.027700
     19 H8           4.8520    19.0290   -39.8950 h1         1 JQ5       0.027700
     20 H9           6.3940    20.5520   -41.1200 hc         1 JQ5       0.017367
     21 H10          5.8730    21.9150   -40.1160 hc         1 JQ5       0.017367
     22 H11          6.7750    20.5710   -39.3910 hc         1 JQ5       0.017367
@<TRIPOS>BOND
     1     1     2 1   
     2     1     5 1   
     3     1    14 1   
     4     1    15 1   
     5     2     3 1   
     6     2     4 1   
     7     5     6 1   
     8     5    16 1   
     9     5    17 1   
    10     6     7 2   
    11     6     8 1   
    12     8     9 1   
    13     8    10 1   
    14     8    13 1   
    15    10    11 1   
    16    11    12 1   
    17    11    18 1   
    18    11    19 1   
    19    12    20 1   
    20    12    21 1   
    21    12    22 1   
@<TRIPOS>SUBSTRUCTURE
     1 JQ5         1 TEMP              0 ****  ****    0 ROOT
