@<TRIPOS>MOLECULE
JQ7
   29    30     1     0     0
SMALL
No Charge or Current Charge


@<TRIPOS>ATOM
      1 C10         -2.4840     1.3460    -0.7240 ca         1 JQ7      -0.101000
      2 C13         -2.1060    -1.4300    -0.7540 ca         1 JQ7      -0.018000
      3 N01          3.6610     0.3630    -1.6470 nt         1 JQ7      -0.596000
      4 C02          2.4640     0.4310    -1.0170 c          1 JQ7       0.587100
      5 O03          1.4760     0.7540    -1.6580 o          1 JQ7      -0.607100
      6 C04          2.4780     0.0890     0.5120 c3         1 JQ7       0.140800
      7 N05          1.1970    -0.1440     1.2680 n3         1 JQ7      -0.743500
      8 C06          0.4780     1.0520     1.7640 c6         1 JQ7       0.172800
      9 C07         -0.4170     1.7610     0.7100 c6         1 JQ7       0.181600
     10 O08         -1.1540     2.8210     1.3530 oh         1 JQ7      -0.643000
     11 C09         -1.3840     0.7990    -0.0230 ca         1 JQ7       0.017700
     12 C11         -3.3870     0.5230    -1.4160 ca         1 JQ7      -0.065000
     13 C12         -3.2000    -0.8660    -1.4270 ca         1 JQ7      -0.119000
     14 C14         -1.1940    -0.6110    -0.0560 ca         1 JQ7      -0.249500
     15 S15          0.2040    -1.4230     0.7440 sy         1 JQ7       1.179600
     16 O16         -0.2490    -2.1200     1.9520 o          1 JQ7      -0.537500
     17 O17          0.9420    -2.1540    -0.2930 o          1 JQ7      -0.537500
     18 H101        -2.6420     2.4210    -0.7360 ha         1 JQ7       0.123000
     19 H131        -1.9650    -2.5100    -0.7820 ha         1 JQ7       0.128000
     20 H012         3.7090     0.5740    -2.6330 hn         1 JQ7       0.319000
     21 H011         4.4940     0.1010    -1.1390 hn         1 JQ7       0.319000
     22 H042         3.1020    -0.8100     0.6020 h1         1 JQ7       0.074200
     23 H041         3.0520     0.8900     0.9950 h1         1 JQ7       0.074200
     24 H061        -0.1670     0.7580     2.6060 h1         1 JQ7       0.075700
     25 H062         1.1940     1.7810     2.1720 h1         1 JQ7       0.075700
     26 H071         0.2420     2.2000    -0.0520 h1         1 JQ7       0.066700
     27 H081        -0.5060     3.5160     1.6010 ho         1 JQ7       0.447000
     28 H111        -4.2290     0.9630    -1.9440 ha         1 JQ7       0.115000
     29 H121        -3.8970    -1.5050    -1.9640 ha         1 JQ7       0.118000
@<TRIPOS>BOND
     1     1    11 ar  
     2     1    12 ar  
     3     1    18 1   
     4     2    13 ar  
     5     2    14 ar  
     6     2    19 1   
     7     3     4 1   
     8     3    20 1   
     9     3    21 1   
    10     4     5 2   
    11     4     6 1   
    12     6     7 1   
    13     6    22 1   
    14     6    23 1   
    15     7     8 1   
    16     7    15 1   
    17     8     9 1   
    18     8    24 1   
    19     8    25 1   
    20     9    10 1   
    21     9    11 1   
    22     9    26 1   
    23    10    27 1   
    24    11    14 ar  
    25    12    13 ar  
    26    12    28 1   
    27    13    29 1   
    28    14    15 1   
    29    15    16 2   
    30    15    17 2   
@<TRIPOS>SUBSTRUCTURE
     1 JQ7         1 TEMP              0 ****  ****    0 ROOT
