@<TRIPOS>MOLECULE
JQ7
   29    30     1     0     0
SMALL
abcg2


@<TRIPOS>ATOM
      1 C10         -2.5070     1.3430    -0.6120 ca         1 JQ7      -0.101000
      2 C13         -1.9720    -1.3650    -0.8520 ca         1 JQ7      -0.018000
      3 N01          3.5970     0.1860    -1.6320 nt         1 JQ7      -0.596000
      4 C02          2.4200     0.3390    -1.0180 c          1 JQ7       0.587100
      5 O03          1.3880     0.6540    -1.5870 o          1 JQ7      -0.607100
      6 C04          2.4780     0.1160     0.4890 c3         1 JQ7       0.140800
      7 N05          1.1970    -0.0630     1.1300 n3         1 JQ7      -0.743500
      8 C06          0.4730     1.0500     1.7280 c6         1 JQ7       0.172800
      9 C07         -0.4300     1.7770     0.7330 c6         1 JQ7       0.181600
     10 O08         -1.2040     2.7360     1.4120 oh         1 JQ7      -0.643000
     11 C09         -1.3640     0.8350     0.0020 ca         1 JQ7       0.017700
     12 C11         -3.3620     0.5230    -1.3310 ca         1 JQ7      -0.065000
     13 C12         -3.0970    -0.8330    -1.4580 ca         1 JQ7      -0.119000
     14 C14         -1.1210    -0.5300    -0.1380 ca         1 JQ7      -0.249500
     15 S15          0.2370    -1.3150     0.6840 sy         1 JQ7       1.179600
     16 O16         -0.3230    -1.9390     1.8740 o          1 JQ7      -0.537500
     17 O17          0.9920    -2.1550    -0.2330 o          1 JQ7      -0.537500
     18 H101        -2.7310     2.3980    -0.5290 ha         1 JQ7       0.123000
     19 H131        -1.7570    -2.4220    -0.9470 ha         1 JQ7       0.128000
     20 H012         3.6880     0.3660    -2.6190 hn         1 JQ7       0.319000
     21 H011         4.4270    -0.0880    -1.1350 hn         1 JQ7       0.319000
     22 H042         3.1420    -0.7180     0.7230 h1         1 JQ7       0.074200
     23 H041         2.9360     0.9970     0.9440 h1         1 JQ7       0.074200
     24 H061        -0.1270     0.6830     2.5650 h1         1 JQ7       0.075700
     25 H062         1.2060     1.7390     2.1490 h1         1 JQ7       0.075700
     26 H071         0.1980     2.2530    -0.0280 h1         1 JQ7       0.066700
     27 H081        -0.6720     3.5300     1.5210 ho         1 JQ7       0.447000
     28 H111        -4.2420     0.9480    -1.7960 ha         1 JQ7       0.115000
     29 H121        -3.7600    -1.4740    -2.0230 ha         1 JQ7       0.118000
@<TRIPOS>BOND
     1     1    11 ar  
     2     1    12 ar  
     3     1    18 1   
     4     2    13 ar  
     5     2    14 ar  
     6     2    19 1   
     7     3     4 1   
     8     3    20 1   
     9     3    21 1   
    10     4     5 2   
    11     4     6 1   
    12     6     7 1   
    13     6    22 1   
    14     6    23 1   
    15     7     8 1   
    16     7    15 1   
    17     8     9 1   
    18     8    24 1   
    19     8    25 1   
    20     9    10 1   
    21     9    11 1   
    22     9    26 1   
    23    10    27 1   
    24    11    14 ar  
    25    12    13 ar  
    26    12    28 1   
    27    13    29 1   
    28    14    15 1   
    29    15    16 2   
    30    15    17 2   
@<TRIPOS>SUBSTRUCTURE
     1 JQ7         1 TEMP              0 ****  ****    0 ROOT
