@<TRIPOS>MOLECULE
JQ8
   16    16     1     0     0
SMALL
No Charge or Current Charge


@<TRIPOS>ATOM
      1 O           -3.7100    -1.1440    -0.0190 o          1 JQ8      -0.696500
      2 C8          -3.1500    -0.0560    -0.0480 c          1 JQ8       0.718200
      3 O1          -3.7310     1.0190    -0.1230 o          1 JQ8      -0.696500
      4 C7          -1.6860    -0.0390     0.0140 cg         1 JQ8      -0.033200
      5 C6          -0.4610    -0.0280    -0.0030 ch         1 JQ8      -0.304000
      6 C5           0.9640    -0.0120    -0.0060 ca         1 JQ8       0.102000
      7 C4           1.6850    -1.2210    -0.0160 ca         1 JQ8      -0.112500
      8 C3           3.0910    -1.2050    -0.0180 ca         1 JQ8      -0.120000
      9 C2           3.7800     0.0200    -0.0110 ca         1 JQ8      -0.144000
     10 C1           3.0640     1.2290    -0.0000 ca         1 JQ8      -0.120000
     11 C            1.6570     1.2130     0.0020 ca         1 JQ8      -0.112500
     12 H2           1.1560    -2.1710    -0.0220 ha         1 JQ8       0.119000
     13 H3           3.6450    -2.1410    -0.0260 ha         1 JQ8       0.095000
     14 H4           4.8680     0.0320    -0.0130 ha         1 JQ8       0.091000
     15 H5           3.5970     2.1770     0.0060 ha         1 JQ8       0.095000
     16 H6           1.1080     2.1510     0.0100 ha         1 JQ8       0.119000
@<TRIPOS>BOND
     1     1     2 1   
     2     2     3 1   
     3     2     4 1   
     4     4     5 3   
     5     5     6 1   
     6     6     7 ar  
     7     6    11 ar  
     8     7     8 ar  
     9     7    12 1   
    10     8     9 ar  
    11     8    13 1   
    12     9    10 ar  
    13     9    14 1   
    14    10    11 ar  
    15    10    15 1   
    16    11    16 1   
@<TRIPOS>SUBSTRUCTURE
     1 JQ8         1 TEMP              0 ****  ****    0 ROOT
