@<TRIPOS>MOLECULE
JQ8
   16    16     1     0     0
SMALL
bcc


@<TRIPOS>ATOM
      1 O           -3.6750    -1.1810     0.0070 o          1 JQ8      -0.801800
      2 C8          -3.1530    -0.0560    -0.0420 c          1 JQ8       0.928800
      3 O1          -3.6960     1.0570    -0.1010 o          1 JQ8      -0.801800
      4 C7          -1.6660    -0.0410    -0.0280 cg         1 JQ8      -0.033200
      5 C6          -0.4570    -0.0280    -0.0200 ch         1 JQ8      -0.304000
      6 C5           0.9690    -0.0120    -0.0140 ca         1 JQ8       0.102000
      7 C4           1.6910    -1.2100    -0.0200 ca         1 JQ8      -0.130500
      8 C3           3.0760    -1.1910    -0.0150 ca         1 JQ8      -0.138000
      9 C2           3.7590     0.0190    -0.0040 ca         1 JQ8      -0.162000
     10 C1           3.0500     1.2140     0.0030 ca         1 JQ8      -0.138000
     11 C            1.6630     1.2020    -0.0030 ca         1 JQ8      -0.130500
     12 H2           1.1590    -2.1530    -0.0290 ha         1 JQ8       0.137000
     13 H3           3.6260    -2.1230    -0.0210 ha         1 JQ8       0.113000
     14 H4           4.8410     0.0310    -0.0000 ha         1 JQ8       0.109000
     15 H5           3.5780     2.1590     0.0120 ha         1 JQ8       0.113000
     16 H6           1.1110     2.1330     0.0020 ha         1 JQ8       0.137000
@<TRIPOS>BOND
     1     1     2 1   
     2     2     3 1   
     3     2     4 1   
     4     4     5 3   
     5     5     6 1   
     6     6     7 ar  
     7     6    11 ar  
     8     7     8 ar  
     9     7    12 1   
    10     8     9 ar  
    11     8    13 1   
    12     9    10 ar  
    13     9    14 1   
    14    10    11 ar  
    15    10    15 1   
    16    11    16 1   
@<TRIPOS>SUBSTRUCTURE
     1 JQ8         1 TEMP              0 ****  ****    0 ROOT
