@<TRIPOS>MOLECULE
JQ9
   52    54     1     0     0
SMALL
abcg2


@<TRIPOS>ATOM
      1 N1          14.8730    84.1390     9.4390 n          1 JQ9      -0.375400
      2 C12         13.3180    83.4760     7.6180 c3         1 JQ9      -0.109100
      3 O2          16.5700    83.3200     8.1640 o          1 JQ9      -0.558000
      4 C2          16.1840    84.1440     8.9710 c          1 JQ9       0.622000
      5 N3          17.0290    85.1080     9.4640 n          1 JQ9      -0.363300
      6 C21         18.4120    85.1670     9.0020 c3         1 JQ9       0.117000
      7 C22         18.5680    85.9730     7.7250 c3         1 JQ9      -0.113100
      8 C4          16.5420    86.0570    10.3160 cc         1 JQ9       0.445900
      9 N9          17.2260    87.0710    10.8500 nc         1 JQ9      -0.716000
     10 C8          16.3410    87.7170    11.6130 cd         1 JQ9       0.524300
     11 N7          15.1200    87.1410    11.5670 na         1 JQ9      -0.106500
     12 C7          13.9030    87.5340    12.2490 c3         1 JQ9       0.060900
     13 C5          15.2350    86.0550    10.7300 cd         1 JQ9      -0.356600
     14 C6          14.2930    85.0810    10.3000 c          1 JQ9       0.634600
     15 O6          13.1150    85.0240    10.6090 o          1 JQ9      -0.543000
     16 C11         13.9970    83.0850     8.9190 c3         1 JQ9       0.101000
     17 CA          16.6520    88.8880    12.3970 cf         1 JQ9      -0.308800
     18 CB          17.8600    89.4720    12.3650 ce         1 JQ9      -0.077200
     19 C1          18.2760    90.6360    13.1330 ca         1 JQ9      -0.076800
     20 C16         17.5060    91.2060    14.1410 ca         1 JQ9      -0.083000
     21 C15         17.9620    92.3140    14.8420 ca         1 JQ9      -0.180000
     22 C13         19.1970    92.8780    14.5540 ca         1 JQ9       0.129100
     23 O4          19.7250    93.9390    15.1810 os         1 JQ9      -0.317100
     24 C14         18.9910    94.5350    16.2320 c3         1 JQ9       0.144900
     25 C3          19.9890    92.3150    13.5300 ca         1 JQ9       0.108100
     26 C10         19.5260    91.2070    12.8460 ca         1 JQ9      -0.149000
     27 O3          21.1660    92.9260    13.3060 os         1 JQ9      -0.321100
     28 C9          22.0120    92.4080    12.3020 c3         1 JQ9       0.144900
     29 H1          12.6870    82.6570     7.2740 hc         1 JQ9       0.044700
     30 H2          12.6840    84.3530     7.7470 hc         1 JQ9       0.044700
     31 H3          14.0460    83.6880     6.8360 hc         1 JQ9       0.044700
     32 H4          18.7690    84.1490     8.8660 h1         1 JQ9       0.069200
     33 H5          18.9980    85.6090     9.8060 h1         1 JQ9       0.069200
     34 H6          19.6170    85.9960     7.4310 hc         1 JQ9       0.046033
     35 H7          18.0000    85.5340     6.9060 hc         1 JQ9       0.046033
     36 H8          18.2370    87.0020     7.8620 hc         1 JQ9       0.046033
     37 H9          14.0700    88.4450    12.8100 h1         1 JQ9       0.064367
     38 H10         13.1120    87.7140    11.5250 h1         1 JQ9       0.064367
     39 H11         13.5880    86.7530    12.9360 h1         1 JQ9       0.064367
     40 H12         13.2570    82.8700     9.6840 h1         1 JQ9       0.068200
     41 H13         14.5910    82.1860     8.7870 h1         1 JQ9       0.068200
     42 H14         15.8700    89.2890    13.0270 ha         1 JQ9       0.180000
     43 H15         18.6120    89.0540    11.7040 ha         1 JQ9       0.196000
     44 H16         16.5420    90.7920    14.4070 ha         1 JQ9       0.112000
     45 H17         17.3400    92.7260    15.6250 ha         1 JQ9       0.121000
     46 H18         19.6010    95.3540    16.6060 h1         1 JQ9       0.042033
     47 H19         18.0360    94.9380    15.8860 h1         1 JQ9       0.042033
     48 H20         18.8050    93.8330    17.0480 h1         1 JQ9       0.042033
     49 H21         20.1280    90.7600    12.0640 ha         1 JQ9       0.123000
     50 H22         22.8930    93.0440    12.2820 h1         1 JQ9       0.041033
     51 H23         22.3230    91.3820    12.5180 h1         1 JQ9       0.041033
     52 H24         21.5390    92.4300    11.3160 h1         1 JQ9       0.041033
@<TRIPOS>BOND
     1     1     4 1   
     2     1    14 1   
     3     1    16 1   
     4     2    16 1   
     5     2    29 1   
     6     2    30 1   
     7     2    31 1   
     8     3     4 2   
     9     4     5 1   
    10     5     6 1   
    11     5     8 1   
    12     6     7 1   
    13     6    32 1   
    14     6    33 1   
    15     7    34 1   
    16     7    35 1   
    17     7    36 1   
    18     8     9 1   
    19     8    13 2   
    20     9    10 2   
    21    10    11 1   
    22    10    17 1   
    23    11    12 1   
    24    11    13 1   
    25    12    37 1   
    26    12    38 1   
    27    12    39 1   
    28    13    14 1   
    29    14    15 2   
    30    16    40 1   
    31    16    41 1   
    32    17    18 2   
    33    17    42 1   
    34    18    19 1   
    35    18    43 1   
    36    19    20 ar  
    37    19    26 ar  
    38    20    21 ar  
    39    20    44 1   
    40    21    22 ar  
    41    21    45 1   
    42    22    23 1   
    43    22    25 ar  
    44    23    24 1   
    45    24    46 1   
    46    24    47 1   
    47    24    48 1   
    48    25    26 ar  
    49    25    27 1   
    50    26    49 1   
    51    27    28 1   
    52    28    50 1   
    53    28    51 1   
    54    28    52 1   
@<TRIPOS>SUBSTRUCTURE
     1 JQ9         1 TEMP              0 ****  ****    0 ROOT
