@<TRIPOS>MOLECULE
JQ9
   52    54     1     0     0
SMALL
No Charge or Current Charge


@<TRIPOS>ATOM
      1 N1          14.7350    84.1290     9.2550 n          1 JQ9      -0.375400
      2 C12         13.2470    83.6220     7.2850 c3         1 JQ9      -0.109100
      3 O2          16.5330    83.1930     8.1830 o          1 JQ9      -0.558000
      4 C2          16.1110    84.0370     8.9620 c          1 JQ9       0.622000
      5 N3          16.9860    84.9500     9.5790 n          1 JQ9      -0.363300
      6 C21         18.4410    84.8750     9.2910 c3         1 JQ9       0.117000
      7 C22         18.8800    85.8500     8.1830 c3         1 JQ9      -0.113100
      8 C4          16.4860    85.8870    10.4500 cc         1 JQ9       0.445900
      9 N9          17.2190    86.8200    11.1120 nc         1 JQ9      -0.716000
     10 C8          16.3540    87.4880    11.8600 cd         1 JQ9       0.524300
     11 N7          15.0580    87.0340    11.6210 na         1 JQ9      -0.106500
     12 C7          13.8140    87.5760    12.1940 c3         1 JQ9       0.060900
     13 C5          15.1720    85.9720    10.7330 cd         1 JQ9      -0.356600
     14 C6          14.1860    85.0690    10.1400 c          1 JQ9       0.634600
     15 O6          12.9920    85.1350    10.3940 o          1 JQ9      -0.543000
     16 C11         13.8130    83.1400     8.6330 c3         1 JQ9       0.101000
     17 CA          16.7740    88.6570    12.6300 cf         1 JQ9      -0.308800
     18 CB          17.9000    89.4090    12.4500 ce         1 JQ9      -0.077200
     19 C1          18.3520    90.6240    13.1900 ca         1 JQ9      -0.076800
     20 C16         17.6740    91.0880    14.3340 ca         1 JQ9      -0.083000
     21 C15         18.1200    92.2340    15.0140 ca         1 JQ9      -0.180000
     22 C13         19.2570    92.9370    14.5590 ca         1 JQ9       0.129100
     23 O4          19.7230    94.0700    15.2060 os         1 JQ9      -0.317100
     24 C14         19.0860    94.6080    16.3780 c3         1 JQ9       0.144900
     25 C3          19.9460    92.4780    13.4120 ca         1 JQ9       0.108100
     26 C10         19.4880    91.3220    12.7360 ca         1 JQ9      -0.149000
     27 O3          21.0610    93.1820    12.9820 os         1 JQ9      -0.321100
     28 C9          21.8260    92.7930    11.8280 c3         1 JQ9       0.144900
     29 H1          12.5740    82.8660     6.8630 hc         1 JQ9       0.044700
     30 H2          12.6830    84.5530     7.4130 hc         1 JQ9       0.044700
     31 H3          14.0560    83.8010     6.5680 hc         1 JQ9       0.044700
     32 H4          18.7230    83.8530     9.0070 h1         1 JQ9       0.069200
     33 H5          19.0010    85.1050    10.2080 h1         1 JQ9       0.069200
     34 H6          19.9590    85.7670     8.0080 hc         1 JQ9       0.046033
     35 H7          18.3600    85.6250     7.2440 hc         1 JQ9       0.046033
     36 H8          18.6560    86.8850     8.4650 hc         1 JQ9       0.046033
     37 H9          13.9620    88.6150    12.5130 h1         1 JQ9       0.064367
     38 H10         13.0180    87.5550    11.4400 h1         1 JQ9       0.064367
     39 H11         13.5120    86.9700    13.0560 h1         1 JQ9       0.064367
     40 H12         12.9790    82.9260     9.3150 h1         1 JQ9       0.068200
     41 H13         14.3320    82.1840     8.4840 h1         1 JQ9       0.068200
     42 H14         16.0630    88.9580    13.3950 ha         1 JQ9       0.180000
     43 H15         18.5810    89.1000    11.6520 ha         1 JQ9       0.196000
     44 H16         16.8000    90.5650    14.7120 ha         1 JQ9       0.112000
     45 H17         17.5700    92.5580    15.8930 ha         1 JQ9       0.121000
     46 H18         19.6180    95.5030    16.7220 h1         1 JQ9       0.042033
     47 H19         18.0480    94.8920    16.1620 h1         1 JQ9       0.042033
     48 H20         19.0890    93.8750    17.1950 h1         1 JQ9       0.042033
     49 H21         20.0050    90.9570    11.8530 ha         1 JQ9       0.123000
     50 H22         22.6600    93.4890    11.6740 h1         1 JQ9       0.041033
     51 H23         22.2440    91.7870    11.9580 h1         1 JQ9       0.041033
     52 H24         21.2030    92.8040    10.9250 h1         1 JQ9       0.041033
@<TRIPOS>BOND
     1     1     4 1   
     2     1    14 1   
     3     1    16 1   
     4     2    16 1   
     5     2    29 1   
     6     2    30 1   
     7     2    31 1   
     8     3     4 2   
     9     4     5 1   
    10     5     6 1   
    11     5     8 1   
    12     6     7 1   
    13     6    32 1   
    14     6    33 1   
    15     7    34 1   
    16     7    35 1   
    17     7    36 1   
    18     8     9 1   
    19     8    13 2   
    20     9    10 2   
    21    10    11 1   
    22    10    17 1   
    23    11    12 1   
    24    11    13 1   
    25    12    37 1   
    26    12    38 1   
    27    12    39 1   
    28    13    14 1   
    29    14    15 2   
    30    16    40 1   
    31    16    41 1   
    32    17    18 2   
    33    17    42 1   
    34    18    19 1   
    35    18    43 1   
    36    19    20 ar  
    37    19    26 ar  
    38    20    21 ar  
    39    20    44 1   
    40    21    22 ar  
    41    21    45 1   
    42    22    23 1   
    43    22    25 ar  
    44    23    24 1   
    45    24    46 1   
    46    24    47 1   
    47    24    48 1   
    48    25    26 ar  
    49    25    27 1   
    50    26    49 1   
    51    27    28 1   
    52    28    50 1   
    53    28    51 1   
    54    28    52 1   
@<TRIPOS>SUBSTRUCTURE
     1 JQ9         1 TEMP              0 ****  ****    0 ROOT
