@<TRIPOS>MOLECULE
JQB
   39    42     1     0     0
SMALL
abcg2


@<TRIPOS>ATOM
      1 C10         -2.7490    -2.5620    -0.6800 cc         1 JQB      -0.136100
      2 C13         -0.8250    -1.4520    -0.6230 ca         1 JQB      -0.057200
      3 C15          1.4570    -0.8560    -0.2890 ca         1 JQB      -0.127500
      4 C17          0.6780    -3.0600     0.3820 ca         1 JQB      -0.069000
      5 C20          3.9630    -0.3200     1.6780 cg         1 JQB       0.375000
      6 C22          4.3760     1.3710    -0.0960 cd         1 JQB       0.292000
      7 C02         -3.7590     0.8220     0.5350 ca         1 JQB       0.604300
      8 N03         -3.9120     1.7830     1.4210 nb         1 JQB      -0.766000
      9 C04         -3.2530     2.9260     1.2370 ca         1 JQB       0.393900
     10 C05         -2.4210     3.1520     0.1590 ca         1 JQB      -0.205000
     11 C06         -2.2690     2.1220    -0.7650 ca         1 JQB      -0.027000
     12 C07         -2.9330     0.9230    -0.5950 ca         1 JQB      -0.191300
     13 N09         -2.1420    -1.3760    -0.9890 na         1 JQB      -0.086700
     14 C11         -1.8530    -3.4230    -0.1180 cd         1 JQB      -0.250200
     15 C12         -0.6050    -2.7330    -0.0660 ca         1 JQB      -0.080800
     16 C14          0.1920    -0.5120    -0.7450 ca         1 JQB      -0.087000
     17 C16          1.6890    -2.1280     0.2710 ca         1 JQB      -0.113000
     18 C18          2.5490     0.1120    -0.4120 cc         1 JQB       0.398500
     19 C19          3.6550     0.3120     0.4660 cc         1 JQB      -0.226000
     20 N21          4.2350    -0.8250     2.6820 n1         1 JQB      -0.489000
     21 N23          3.6970     1.7120    -1.1960 na         1 JQB      -0.048200
     22 N24          2.5960     0.9620    -1.4060 nd         1 JQB      -0.526800
     23 H1          -3.7960    -2.7040    -0.8930 h4         1 JQB       0.213000
     24 H2           0.8840    -4.0360     0.8040 ha         1 JQB       0.117000
     25 H3          -3.4050     3.6920     1.9880 h4         1 JQB       0.022100
     26 H4          -1.9080     4.0950     0.0430 ha         1 JQB       0.130000
     27 H5          -1.6260     2.2590    -1.6270 ha         1 JQB       0.122000
     28 H7          -3.7580    -0.5360    -1.9450 h1         1 JQB       0.064200
     29 H8          -2.2100     0.1170    -2.4320 h1         1 JQB       0.064200
     30 H9          -2.0600    -4.4270     0.2140 ha         1 JQB       0.206000
     31 H10          0.0150     0.4680    -1.1680 ha         1 JQB       0.121000
     32 H11          2.6850    -2.3970     0.5970 ha         1 JQB       0.120000
     33 H12          3.9480     2.4230    -1.8650 hn         1 JQB       0.372000
     34 H13          5.7450     2.8620    -0.0630 hn         1 JQB       0.478000
     35 H14          5.8090     1.8130     1.2490 hn         1 JQB       0.478000
     36 H15         -4.9540    -0.2450     1.5280 ho         1 JQB       0.489000
     37 C08         -2.7870    -0.2160    -1.5670 c3         1 JQB       0.147900
     38 N25          5.5370     1.9410     0.2880 nv         1 JQB      -1.075000
     39 O01         -4.4330    -0.3150     0.7160 oh         1 JQB      -0.645300
@<TRIPOS>BOND
     1     1    13 1   
     2     1    14 2   
     3     1    23 1   
     4     2    13 1   
     5     2    15 ar  
     6     2    16 ar  
     7     3    16 ar  
     8     3    17 ar  
     9     3    18 1   
    10     4    15 ar  
    11     4    17 ar  
    12     4    24 1   
    13     5    19 1   
    14     5    20 3   
    15     6    19 2   
    16     6    21 1   
    17     6    38 1   
    18     7     8 ar  
    19     7    12 ar  
    20     7    39 1   
    21     8     9 ar  
    22     9    10 ar  
    23     9    25 1   
    24    10    11 ar  
    25    10    26 1   
    26    11    12 ar  
    27    11    27 1   
    28    12    37 1   
    29    13    37 1   
    30    14    15 1   
    31    14    30 1   
    32    16    31 1   
    33    17    32 1   
    34    18    19 1   
    35    18    22 2   
    36    21    22 1   
    37    21    33 1   
    38    28    37 1   
    39    29    37 1   
    40    34    38 1   
    41    35    38 1   
    42    36    39 1   
@<TRIPOS>SUBSTRUCTURE
     1 JQB         1 TEMP              0 ****  ****    0 ROOT
