@<TRIPOS>MOLECULE
JQB
   39    42     1     0     0
SMALL
No Charge or Current Charge


@<TRIPOS>ATOM
      1 C10         -2.7340    -2.4270    -0.4070 cc         1 JQB      -0.136100
      2 C13         -0.6900    -1.3630    -0.4420 ca         1 JQB      -0.057200
      3 C15          1.6670    -0.7870    -0.1400 ca         1 JQB      -0.127500
      4 C17          0.7520    -2.9350     0.6910 ca         1 JQB      -0.069000
      5 C20          4.5690    -0.6270     1.2570 cg         1 JQB       0.375000
      6 C22          4.7510     1.2170    -0.3640 cd         1 JQB       0.292000
      7 C02         -4.4460     0.8540    -0.0270 ca         1 JQB       0.604300
      8 N03         -4.9940     1.7320     0.8140 nb         1 JQB      -0.766000
      9 C04         -4.2340     2.7870     1.1850 ca         1 JQB       0.393900
     10 C05         -2.9230     2.9830     0.7200 ca         1 JQB      -0.205000
     11 C06         -2.3610     2.0520    -0.1670 ca         1 JQB      -0.027000
     12 C07         -3.1440     0.9500    -0.5540 ca         1 JQB      -0.191300
     13 N09         -2.0320    -1.2740    -0.8130 na         1 JQB      -0.086700
     14 C11         -1.7740    -3.2090     0.2190 cd         1 JQB      -0.250200
     15 C12         -0.4960    -2.5480     0.2030 ca         1 JQB      -0.080800
     16 C14          0.3710    -0.4660    -0.6420 ca         1 JQB      -0.087000
     17 C16          1.8350    -2.0500     0.5090 ca         1 JQB      -0.113000
     18 C18          2.7850     0.1700    -0.3780 cc         1 JQB       0.398500
     19 C19          4.0810     0.1930     0.2120 cc         1 JQB      -0.226000
     20 N21          4.9980    -1.2800     2.1250 n1         1 JQB      -0.489000
     21 N23          3.8740     1.7800    -1.2790 na         1 JQB      -0.048200
     22 N24          2.6440     1.1280    -1.2900 nd         1 JQB      -0.526800
     23 H1          -3.7950    -2.5790    -0.5850 h4         1 JQB       0.213000
     24 H2           0.8880    -3.8950     1.1840 ha         1 JQB       0.117000
     25 H3          -4.6900     3.4980     1.8730 h4         1 JQB       0.022100
     26 H4          -2.3560     3.8490     1.0480 ha         1 JQB       0.130000
     27 H5          -1.3480     2.1870    -0.5400 ha         1 JQB       0.122000
     28 H7          -3.3950    -0.4490    -2.1750 h1         1 JQB       0.064200
     29 H8          -1.8250     0.3420    -2.1530 h1         1 JQB       0.064200
     30 H9          -1.9690    -4.1830     0.6630 ha         1 JQB       0.206000
     31 H10          0.1930     0.4700    -1.1620 ha         1 JQB       0.121000
     32 H11          2.8020    -2.3920     0.8530 ha         1 JQB       0.120000
     33 H12          4.0720     2.5730    -1.8830 hn         1 JQB       0.372000
     34 H13          6.3220     2.5690    -0.5990 hn         1 JQB       0.478000
     35 H14          6.5920     1.3300     0.5950 hn         1 JQB       0.478000
     36 H15         -6.0760     0.0890     0.1770 ho         1 JQB       0.489000
     37 C08         -2.5940    -0.1020    -1.5100 c3         1 JQB       0.147900
     38 N25          6.0140     1.7010    -0.1600 nv         1 JQB      -1.075000
     39 O01         -5.2800    -0.1450    -0.3390 oh         1 JQB      -0.645300
@<TRIPOS>BOND
     1     1    13 1   
     2     1    14 2   
     3     1    23 1   
     4     2    13 1   
     5     2    15 ar  
     6     2    16 ar  
     7     3    16 ar  
     8     3    17 ar  
     9     3    18 1   
    10     4    15 ar  
    11     4    17 ar  
    12     4    24 1   
    13     5    19 1   
    14     5    20 3   
    15     6    19 2   
    16     6    21 1   
    17     6    38 1   
    18     7     8 ar  
    19     7    12 ar  
    20     7    39 1   
    21     8     9 ar  
    22     9    10 ar  
    23     9    25 1   
    24    10    11 ar  
    25    10    26 1   
    26    11    12 ar  
    27    11    27 1   
    28    12    37 1   
    29    13    37 1   
    30    14    15 1   
    31    14    30 1   
    32    16    31 1   
    33    17    32 1   
    34    18    19 1   
    35    18    22 2   
    36    21    22 1   
    37    21    33 1   
    38    28    37 1   
    39    29    37 1   
    40    34    38 1   
    41    35    38 1   
    42    36    39 1   
@<TRIPOS>SUBSTRUCTURE
     1 JQB         1 TEMP              0 ****  ****    0 ROOT
