@<TRIPOS>MOLECULE
JQD
   35    38     1     0     0
SMALL
abcg2


@<TRIPOS>ATOM
      1 C13          2.4410     1.4970     0.2000 c5         1 JQD       0.126000
      2 C17          3.3950    -2.0730     0.1790 c5         1 JQD      -0.169400
      3 C01         -5.3500    -1.5570     0.3590 c3         1 JQD       0.148900
      4 O02         -4.5620    -0.4430     0.7290 os         1 JQD      -0.338100
      5 C03         -3.3130    -0.3460     0.2360 ca         1 JQD       0.174100
      6 C04         -2.7380    -1.2710    -0.6350 ca         1 JQD      -0.224000
      7 C05         -1.4340    -1.0690    -1.0680 ca         1 JQD      -0.032000
      8 C06         -0.6850     0.0230    -0.6610 ca         1 JQD      -0.176300
      9 C07          0.7700     0.1600    -0.9960 c5         1 JQD       0.209800
     10 C08          1.3130     1.6070    -0.8400 c5         1 JQD      -0.118700
     11 C09          0.2240     2.5850    -0.4510 c6         1 JQD       0.167600
     12 O10         -0.6190     2.0630     0.5700 os         1 JQD      -0.334100
     13 C11         -1.2920     0.9530     0.1840 ca         1 JQD       0.177100
     14 C12         -2.5910     0.7800     0.6300 ca         1 JQD      -0.175000
     15 N14          2.7440     0.1010     0.1670 n          1 JQD      -0.309200
     16 N15          1.5580    -0.6340    -0.0370 n3         1 JQD      -0.425600
     17 C16          2.0330    -1.9410    -0.4960 c5         1 JQD       0.128800
     18 C18          3.8450    -0.6310     0.3280 c          1 JQD       0.575000
     19 O19          4.9650    -0.2120     0.5850 o          1 JQD      -0.549000
     20 H132         3.3170     2.0890    -0.0570 h1         1 JQD       0.068200
     21 H131         2.0980     1.7930     1.1960 h1         1 JQD       0.068200
     22 H172         3.3150    -2.5160     1.1750 hc         1 JQD       0.082700
     23 H171         4.1080    -2.6640    -0.3940 hc         1 JQD       0.082700
     24 H011        -5.5210    -1.5970    -0.7200 h1         1 JQD       0.042033
     25 H012        -4.9000    -2.5000     0.6780 h1         1 JQD       0.042033
     26 H013        -6.3070    -1.4380     0.8610 h1         1 JQD       0.042033
     27 H041        -3.2790    -2.1420    -0.9780 ha         1 JQD       0.120000
     28 H051        -0.9880    -1.7970    -1.7370 ha         1 JQD       0.107000
     29 H071         0.9520    -0.1930    -2.0200 h1         1 JQD       0.048700
     30 H081         1.7330     1.9330    -1.7930 hc         1 JQD       0.067700
     31 H091         0.6510     3.5080    -0.0590 h1         1 JQD       0.060200
     32 H092        -0.3800     2.8420    -1.3270 h1         1 JQD       0.060200
     33 H121        -3.0460     1.5170     1.2810 ha         1 JQD       0.143000
     34 H162         2.1510    -1.9550    -1.5870 h1         1 JQD       0.054700
     35 H161         1.3290    -2.7240    -0.2200 h1         1 JQD       0.054700
@<TRIPOS>BOND
     1     1    10 1   
     2     1    15 1   
     3     1    20 1   
     4     1    21 1   
     5     2    17 1   
     6     2    18 1   
     7     2    22 1   
     8     2    23 1   
     9     3     4 1   
    10     3    24 1   
    11     3    25 1   
    12     3    26 1   
    13     4     5 1   
    14     5     6 ar  
    15     5    14 ar  
    16     6     7 ar  
    17     6    27 1   
    18     7     8 ar  
    19     7    28 1   
    20     8     9 1   
    21     8    13 ar  
    22     9    10 1   
    23     9    16 1   
    24     9    29 1   
    25    10    11 1   
    26    10    30 1   
    27    11    12 1   
    28    11    31 1   
    29    11    32 1   
    30    12    13 1   
    31    13    14 ar  
    32    14    33 1   
    33    15    16 1   
    34    15    18 1   
    35    16    17 1   
    36    17    34 1   
    37    17    35 1   
    38    18    19 2   
@<TRIPOS>SUBSTRUCTURE
     1 JQD         1 TEMP              0 ****  ****    0 ROOT
