@<TRIPOS>MOLECULE
JQD
   35    38     1     0     0
SMALL
No Charge or Current Charge


@<TRIPOS>ATOM
      1 C13          1.8140     1.0280     0.7590 c5         1 JQD       0.126000
      2 C17          3.6920    -1.9500    -0.1550 c5         1 JQD      -0.169400
      3 C01         -5.5070    -1.3440     0.7800 c3         1 JQD       0.148900
      4 O02         -4.7060    -0.1500     0.7250 os         1 JQD      -0.338100
      5 C03         -3.4040    -0.1590     0.2690 ca         1 JQD       0.174100
      6 C04         -2.7630    -1.3300    -0.1790 ca         1 JQD      -0.224000
      7 C05         -1.4320    -1.2770    -0.6270 ca         1 JQD      -0.032000
      8 C06         -0.7170    -0.0620    -0.6360 ca         1 JQD      -0.176300
      9 C07          0.7400    -0.0610    -1.1290 c5         1 JQD       0.209800
     10 C08          1.3930     1.2980    -0.7130 c5         1 JQD      -0.118700
     11 C09          0.4680     2.5050    -0.9290 c6         1 JQD       0.167600
     12 O10         -0.7550     2.3390    -0.1930 os         1 JQD      -0.334100
     13 C11         -1.3830     1.1130    -0.2060 ca         1 JQD       0.177100
     14 C12         -2.7060     1.0550     0.2530 ca         1 JQD      -0.175000
     15 N14          2.2370    -0.3670     0.5910 n          1 JQD      -0.309200
     16 N15          1.5430    -1.0980    -0.4050 n3         1 JQD      -0.425600
     17 C16          2.6820    -1.5450    -1.2630 c5         1 JQD       0.128800
     18 C18          3.5760    -0.7480     0.7740 c          1 JQD       0.575000
     19 O19          4.4510    -0.0450     1.2640 o          1 JQD      -0.549000
     20 H132         2.6150     1.6990     1.0970 h1         1 JQD       0.068200
     21 H131         0.9720     1.0970     1.4610 h1         1 JQD       0.068200
     22 H172         3.2970    -2.8350     0.3560 hc         1 JQD       0.082700
     23 H171         4.7190    -2.1160    -0.4920 hc         1 JQD       0.082700
     24 H011        -5.6270    -1.7800    -0.2190 h1         1 JQD       0.042033
     25 H012        -5.0460    -2.0920     1.4390 h1         1 JQD       0.042033
     26 H013        -6.5050    -1.1150     1.1730 h1         1 JQD       0.042033
     27 H041        -3.2740    -2.2880    -0.1840 ha         1 JQD       0.120000
     28 H051        -0.9490    -2.1920    -0.9650 ha         1 JQD       0.107000
     29 H071         0.7510    -0.2050    -2.2190 h1         1 JQD       0.048700
     30 H081         2.2800     1.4940    -1.3260 hc         1 JQD       0.067700
     31 H091         0.9560     3.4360    -0.6090 h1         1 JQD       0.060200
     32 H092         0.2250     2.5970    -1.9980 h1         1 JQD       0.060200
     33 H121        -3.1970     1.9620     0.5930 ha         1 JQD       0.143000
     34 H162         3.0900    -0.7330    -1.8830 h1         1 JQD       0.054700
     35 H161         2.4070    -2.3810    -1.9210 h1         1 JQD       0.054700
@<TRIPOS>BOND
     1     1    10 1   
     2     1    15 1   
     3     1    20 1   
     4     1    21 1   
     5     2    17 1   
     6     2    18 1   
     7     2    22 1   
     8     2    23 1   
     9     3     4 1   
    10     3    24 1   
    11     3    25 1   
    12     3    26 1   
    13     4     5 1   
    14     5     6 ar  
    15     5    14 ar  
    16     6     7 ar  
    17     6    27 1   
    18     7     8 ar  
    19     7    28 1   
    20     8     9 1   
    21     8    13 ar  
    22     9    10 1   
    23     9    16 1   
    24     9    29 1   
    25    10    11 1   
    26    10    30 1   
    27    11    12 1   
    28    11    31 1   
    29    11    32 1   
    30    12    13 1   
    31    13    14 ar  
    32    14    33 1   
    33    15    16 1   
    34    15    18 1   
    35    16    17 1   
    36    17    34 1   
    37    17    35 1   
    38    18    19 2   
@<TRIPOS>SUBSTRUCTURE
     1 JQD         1 TEMP              0 ****  ****    0 ROOT
