@<TRIPOS>MOLECULE
JQE
   20    21     1     0     0
SMALL
bcc


@<TRIPOS>ATOM
      1 C1          -1.7440    -1.0360    -0.2600 cc         1 JQE       0.009000
      2 C2          -0.9780     0.0630    -0.4360 cd         1 JQE       0.055600
      3 C12          2.7580     0.0820    -0.0090 ca         1 JQE       0.005400
      4 C14          2.9580    -1.2580     0.3320 ca         1 JQE      -0.126000
      5 S3          -0.8880    -2.4810     0.1940 ss         1 JQE      -0.118500
      6 C4           0.4050    -0.2610    -0.1920 ca         1 JQE      -0.036800
      7 C5           0.6080    -1.6070     0.1520 ca         1 JQE      -0.024100
      8 C6          -1.4480     1.4130    -0.8390 c3         1 JQE      -0.190200
      9 C7          -1.4400     2.4590     0.3060 c          1 JQE       0.937600
     10 C8           1.5060     0.5960    -0.2640 ca         1 JQE      -0.039000
     11 CL9         -3.4420    -1.1320    -0.4420 cl         1 JQE      -0.089400
     12 C10          1.8760    -2.1120     0.4150 ca         1 JQE      -0.111000
     13 O11         -1.8520     3.5900    -0.0140 o          1 JQE      -0.822800
     14 O13         -1.0280     2.0890     1.4180 o          1 JQE      -0.822800
     15 CL5          4.1380     1.1300    -0.1020 cl         1 JQE      -0.142400
     16 H1           3.9550    -1.6270     0.5290 ha         1 JQE       0.129000
     17 H2          -0.8200     1.7880    -1.6540 hc         1 JQE       0.043700
     18 H3          -2.4570     1.3570    -1.2540 hc         1 JQE       0.043700
     19 H4           1.3780     1.6390    -0.5220 ha         1 JQE       0.172000
     20 H5           2.0230    -3.1510     0.6780 ha         1 JQE       0.127000
@<TRIPOS>BOND
     1     1     2 2   
     2     1     5 1   
     3     1    11 1   
     4     2     6 1   
     5     2     8 1   
     6     3     4 ar  
     7     3    10 ar  
     8     3    15 1   
     9     4    12 ar  
    10     4    16 1   
    11     5     7 1   
    12     6     7 ar  
    13     6    10 ar  
    14     7    12 ar  
    15     8     9 1   
    16     8    17 1   
    17     8    18 1   
    18     9    13 1   
    19     9    14 1   
    20    10    19 1   
    21    12    20 1   
@<TRIPOS>SUBSTRUCTURE
     1 JQE         1 TEMP              0 ****  ****    0 ROOT
