@<TRIPOS>MOLECULE
JQE
   20    21     1     0     0
SMALL
No Charge or Current Charge


@<TRIPOS>ATOM
      1 C1          -1.8180    -0.9150    -0.3440 cc         1 JQE       0.084600
      2 C2          -0.9300     0.1400    -0.5060 cd         1 JQE       0.055600
      3 C12          2.8410    -0.0060     0.0480 ca         1 JQE       0.097000
      4 C14          2.9330    -1.3650     0.4110 ca         1 JQE      -0.108000
      5 S3          -1.0240    -2.4310     0.1540 ss         1 JQE       0.008400
      6 C4           0.4450    -0.2450    -0.2190 ca         1 JQE      -0.036800
      7 C5           0.5380    -1.5780     0.1400 ca         1 JQE      -0.151000
      8 C6          -1.3350     1.5370    -0.9310 c3         1 JQE      -0.190200
      9 C7          -1.5360     2.4390     0.2900 c          1 JQE       0.727000
     10 C8           1.5940     0.5650    -0.2690 ca         1 JQE      -0.021000
     11 Cl9         -3.5420    -0.8620    -0.5800 cl         1 JQE      -0.165000
     12 C10          1.7730    -2.1620     0.4590 ca         1 JQE      -0.093000
     13 O11         -2.6300     2.4340     0.8340 o          1 JQE      -0.717500
     14 O13         -0.5600     3.0200     0.7400 o          1 JQE      -0.717500
     15 Cl5          4.2960     0.9820    -0.0060 cl         1 JQE      -0.234000
     16 H1           3.9000    -1.7980     0.6540 ha         1 JQE       0.111000
     17 H2          -0.5270     1.9310    -1.5570 hc         1 JQE       0.043700
     18 H3          -2.2770     1.4520    -1.4830 hc         1 JQE       0.043700
     19 H4           1.5330     1.6150    -0.5420 ha         1 JQE       0.154000
     20 H5           1.8340    -3.2120     0.7400 ha         1 JQE       0.109000
@<TRIPOS>BOND
     1     1     2 2   
     2     1     5 1   
     3     1    11 1   
     4     2     6 1   
     5     2     8 1   
     6     3     4 ar  
     7     3    10 ar  
     8     3    15 1   
     9     4    12 ar  
    10     4    16 1   
    11     5     7 1   
    12     6     7 ar  
    13     6    10 ar  
    14     7    12 ar  
    15     8     9 1   
    16     8    17 1   
    17     8    18 1   
    18     9    13 1   
    19     9    14 1   
    20    10    19 1   
    21    12    20 1   
@<TRIPOS>SUBSTRUCTURE
     1 JQE         1 TEMP              0 ****  ****    0 ROOT
