@<TRIPOS>MOLECULE
JQF
   43    45     1     0     0
SMALL
abcg2


@<TRIPOS>ATOM
      1 O            4.4360    -1.5640    -0.3220 o          1 JQF      -0.573100
      2 C4           4.5840    -0.3580    -0.3850 c          1 JQF       0.608100
      3 C3           5.9430     0.2810    -0.5640 c3         1 JQF      -0.156400
      4 C1           7.0390    -0.3850     0.2680 c3         1 JQF      -0.051700
      5 C            8.4030     0.1600    -0.1400 c3         1 JQF      -0.091100
      6 C2           6.7970    -0.1850     1.7610 c3         1 JQF      -0.091100
      7 N            3.5510     0.5300    -0.3350 ns         1 JQF      -0.148000
      8 C5           2.1830     0.2900    -0.2660 ca         1 JQF       0.010000
      9 C6           1.3450     1.4130    -0.2950 ca         1 JQF      -0.164000
     10 C7          -0.0240     1.2770    -0.2420 ca         1 JQF      -0.041500
     11 C10          1.6020    -0.9760    -0.1710 ca         1 JQF      -0.164000
     12 C9           0.2230    -1.1000    -0.1300 ca         1 JQF      -0.041500
     13 C8          -0.6130     0.0130    -0.1720 ca         1 JQF      -0.187900
     14 C11         -2.0780    -0.0980    -0.1340 cc         1 JQF       0.571500
     15 N2          -2.6340    -1.2690    -0.5680 ns         1 JQF      -0.428400
     16 C18         -3.9850    -1.5350    -0.5850 c          1 JQF       0.578600
     17 O1          -4.4100    -2.6030    -0.9850 o          1 JQF      -0.539000
     18 N1          -2.7850     0.8910     0.2900 nd         1 JQF      -0.638100
     19 C12         -4.1500     0.7530     0.3060 ca         1 JQF       0.193400
     20 C17         -4.7960    -0.4260    -0.1020 ca         1 JQF      -0.206600
     21 C13         -4.9310     1.8270     0.7580 ca         1 JQF      -0.108000
     22 C14         -6.3030     1.7190     0.7950 ca         1 JQF      -0.074000
     23 C15         -6.9410     0.5410     0.3870 ca         1 JQF      -0.136000
     24 C16         -6.1890    -0.5240    -0.0600 ca         1 JQF      -0.039000
     25 H31C         6.1860     0.1960    -1.6300 hc         1 JQF       0.060200
     26 H32C         5.9100     1.3520    -0.3440 hc         1 JQF       0.060200
     27 H            3.8060     1.5040    -0.3980 hn         1 JQF       0.152000
     28 H1           7.0240    -1.4570     0.0530 hc         1 JQF       0.071700
     29 HC1          8.4750     1.2330     0.0540 hc         1 JQF       0.036200
     30 HC2          9.2020    -0.3310     0.4170 hc         1 JQF       0.036200
     31 HC3          8.5920     0.0020    -1.2030 hc         1 JQF       0.036200
     32 H21C         5.8430    -0.6050     2.0830 hc         1 JQF       0.036200
     33 H22C         7.5790    -0.6650     2.3510 hc         1 JQF       0.036200
     34 H23C         6.7960     0.8780     2.0160 hc         1 JQF       0.036200
     35 H6           1.7770     2.4040    -0.3690 ha         1 JQF       0.134500
     36 H10          2.2100    -1.8640    -0.1260 ha         1 JQF       0.134500
     37 H7          -0.6490     2.1590    -0.2710 ha         1 JQF       0.127500
     38 H9          -0.1810    -2.1000    -0.0350 ha         1 JQF       0.127500
     39 H2          -2.0350    -1.9920    -0.9460 hn         1 JQF       0.331500
     40 H13         -4.4350     2.7350     1.0770 ha         1 JQF       0.131000
     41 H16         -6.6700    -1.4370    -0.3820 ha         1 JQF       0.135000
     42 H14         -6.8950     2.5550     1.1440 ha         1 JQF       0.116000
     43 H15         -8.0190     0.4690     0.4220 ha         1 JQF       0.119000
@<TRIPOS>BOND
     1     1     2 2   
     2     2     3 1   
     3     2     7 1   
     4     3     4 1   
     5     3    25 1   
     6     3    26 1   
     7     4     5 1   
     8     4     6 1   
     9     4    28 1   
    10     5    29 1   
    11     5    30 1   
    12     5    31 1   
    13     6    32 1   
    14     6    33 1   
    15     6    34 1   
    16     7     8 1   
    17     7    27 1   
    18     8     9 ar  
    19     8    11 ar  
    20     9    10 ar  
    21     9    35 1   
    22    10    13 ar  
    23    10    37 1   
    24    11    12 ar  
    25    11    36 1   
    26    12    13 ar  
    27    12    38 1   
    28    13    14 1   
    29    14    15 1   
    30    14    18 2   
    31    15    16 1   
    32    15    39 1   
    33    16    17 2   
    34    16    20 1   
    35    18    19 1   
    36    19    20 ar  
    37    19    21 ar  
    38    20    24 ar  
    39    21    22 ar  
    40    21    40 1   
    41    22    23 ar  
    42    22    42 1   
    43    23    24 ar  
    44    23    43 1   
    45    24    41 1   
@<TRIPOS>SUBSTRUCTURE
     1 JQF         1 TEMP              0 ****  ****    0 ROOT
