@<TRIPOS>MOLECULE
JQF
   43    45     1     0     0
SMALL
No Charge or Current Charge


@<TRIPOS>ATOM
      1 O            4.5460    -1.7700    -1.0120 o          1 JQF      -0.573100
      2 C4           4.7070    -0.5710    -0.8180 c          1 JQF       0.608100
      3 C3           6.1100     0.0580    -0.8230 c3         1 JQF      -0.156400
      4 C1           6.9350    -0.3070     0.4420 c3         1 JQF      -0.051700
      5 C            8.3910     0.1970     0.3200 c3         1 JQF      -0.091100
      6 C2           6.2770     0.2080     1.7440 c3         1 JQF      -0.091100
      7 N            3.6760     0.3380    -0.6200 ns         1 JQF      -0.148000
      8 C5           2.2670     0.1790    -0.5250 ca         1 JQF       0.010000
      9 C6           1.4800     1.3410    -0.4740 ca         1 JQF      -0.164000
     10 C7           0.0810     1.2620    -0.3740 ca         1 JQF      -0.041500
     11 C10          1.6260    -1.0750    -0.4540 ca         1 JQF      -0.164000
     12 C9           0.2260    -1.1590    -0.3550 ca         1 JQF      -0.041500
     13 C8          -0.5710     0.0090    -0.3380 ca         1 JQF      -0.187900
     14 C11         -2.0350    -0.0640    -0.1950 cc         1 JQF       0.571500
     15 N2          -2.6320    -1.1720    -0.7350 ns         1 JQF      -0.428400
     16 C18         -3.9570    -1.4270    -0.7170 c          1 JQF       0.578600
     17 O1          -4.4270    -2.4370    -1.2160 o          1 JQF      -0.539000
     18 N1          -2.7010     0.9290     0.3990 nd         1 JQF      -0.638100
     19 C12         -4.0930     0.7490     0.4670 ca         1 JQF       0.193400
     20 C17         -4.7610    -0.3760    -0.0530 ca         1 JQF      -0.206600
     21 C13         -4.8490     1.7570     1.0940 ca         1 JQF      -0.108000
     22 C14         -6.2460     1.6500     1.2040 ca         1 JQF      -0.074000
     23 C15         -6.9040     0.5250     0.6830 ca         1 JQF      -0.136000
     24 C16         -6.1640    -0.4880     0.0540 ca         1 JQF      -0.039000
     25 H31C         6.6440    -0.3190    -1.7040 hc         1 JQF       0.060200
     26 H32C         6.0320     1.1500    -0.8870 hc         1 JQF       0.060200
     27 H            3.9860     1.2950    -0.5110 hn         1 JQF       0.152000
     28 H1           6.9800    -1.4030     0.5080 hc         1 JQF       0.071700
     29 HC1          8.4220     1.2910     0.2500 hc         1 JQF       0.036200
     30 HC2          8.9820    -0.1080     1.1920 hc         1 JQF       0.036200
     31 HC3          8.8730    -0.2170    -0.5740 hc         1 JQF       0.036200
     32 H21C         5.2810    -0.2290     1.8840 hc         1 JQF       0.036200
     33 H22C         6.8840    -0.0620     2.6160 hc         1 JQF       0.036200
     34 H23C         6.1750     1.3000     1.7250 hc         1 JQF       0.036200
     35 H6           1.9540     2.3200    -0.5120 ha         1 JQF       0.134500
     36 H10          2.1950    -1.9990    -0.4570 ha         1 JQF       0.134500
     37 H7          -0.4960     2.1850    -0.3380 ha         1 JQF       0.127500
     38 H9          -0.2260    -2.1460    -0.2740 ha         1 JQF       0.127500
     39 H2          -2.0570    -1.8540    -1.2040 hn         1 JQF       0.331500
     40 H13         -4.3460     2.6300     1.5000 ha         1 JQF       0.131000
     41 H16         -6.6810    -1.3580    -0.3490 ha         1 JQF       0.135000
     42 H14         -6.8160     2.4380     1.6920 ha         1 JQF       0.116000
     43 H15         -7.9850     0.4390     0.7660 ha         1 JQF       0.119000
@<TRIPOS>BOND
     1     1     2 2   
     2     2     3 1   
     3     2     7 1   
     4     3     4 1   
     5     3    25 1   
     6     3    26 1   
     7     4     5 1   
     8     4     6 1   
     9     4    28 1   
    10     5    29 1   
    11     5    30 1   
    12     5    31 1   
    13     6    32 1   
    14     6    33 1   
    15     6    34 1   
    16     7     8 1   
    17     7    27 1   
    18     8     9 ar  
    19     8    11 ar  
    20     9    10 ar  
    21     9    35 1   
    22    10    13 ar  
    23    10    37 1   
    24    11    12 ar  
    25    11    36 1   
    26    12    13 ar  
    27    12    38 1   
    28    13    14 1   
    29    14    15 1   
    30    14    18 2   
    31    15    16 1   
    32    15    39 1   
    33    16    17 2   
    34    16    20 1   
    35    18    19 1   
    36    19    20 ar  
    37    19    21 ar  
    38    20    24 ar  
    39    21    22 ar  
    40    21    40 1   
    41    22    23 ar  
    42    22    42 1   
    43    23    24 ar  
    44    23    43 1   
    45    24    41 1   
@<TRIPOS>SUBSTRUCTURE
     1 JQF         1 TEMP              0 ****  ****    0 ROOT
