@<TRIPOS>MOLECULE
JQL
   56    60     1     0     0
SMALL
bcc


@<TRIPOS>ATOM
      1 C10        125.9300    99.7700    38.5760 cc         1 JQL       0.128400
      2 C11        127.7840   102.7720    38.6280 cc         1 JQL      -0.140000
      3 C15        132.0340   107.8480    38.2890 cc         1 JQL       0.326200
      4 C16        129.0990   102.9270    38.2700 cd         1 JQL       0.078600
      5 C18        129.2500   100.5750    37.7100 cc         1 JQL      -0.059300
      6 C19        129.8310   101.7930    37.7950 cd         1 JQL      -0.189000
      7 C21        124.7170    98.9840    38.8050 ca         1 JQL      -0.016800
      8 C22        129.2610   107.8520    40.3910 c3         1 JQL       0.040600
      9 C23        124.7100    97.5980    38.6300 ca         1 JQL      -0.108000
     10 C24        123.5380    99.6090    39.2130 ca         1 JQL      -0.108000
     11 C25        123.5580    96.8610    38.8550 ca         1 JQL      -0.135500
     12 C26        122.3860    98.8710    39.4380 ca         1 JQL      -0.135500
     13 C27        122.3890    97.4940    39.2600 ca         1 JQL      -0.125000
     14 C28        133.5820   105.3220    34.9490 c5         1 JQL       0.108700
     15 C1         132.2290   105.6600    36.9550 c          1 JQL       0.728700
     16 O2         132.2810   104.4500    37.2120 o          1 JQL      -0.653100
     17 N3         132.8110   106.1760    35.8700 n          1 JQL      -0.458800
     18 C4         130.4080   106.4040    38.6510 cd         1 JQL      -0.107900
     19 C5         131.5600   106.5920    37.8870 cc         1 JQL      -0.319900
     20 C6         127.1960   101.4940    38.5330 cd         1 JQL      -0.001300
     21 N7         125.9730   101.1070    38.8340 nc         1 JQL      -0.295600
     22 C8         129.3750   105.3340    38.6890 c          1 JQL       0.700700
     23 N9         127.9490   100.4270    38.0800 na         1 JQL       0.018700
     24 N12        130.2780   107.5130    39.4110 na         1 JQL       0.158400
     25 N13        131.2600   108.3780    39.2110 nd         1 JQL      -0.512800
     26 C14        127.1410    99.3220    38.1040 cd         1 JQL      -0.225100
     27 N17        129.8240   104.1110    38.3370 ns         1 JQL      -0.463100
     28 O20        128.2320   105.5860    39.0260 o          1 JQL      -0.588100
     29 C29        133.7570   106.2070    33.7090 c5         1 JQL      -0.094400
     30 C31        132.6200   107.2150    33.7960 c5         1 JQL      -0.098400
     31 C32        132.5450   107.4920    35.2890 c5         1 JQL       0.102000
     32 H33        127.1750   103.5810    38.9930 ha         1 JQL       0.190000
     33 H35        132.9220   108.3650    37.9590 h4         1 JQL       0.045100
     34 H37        129.7660    99.6940    37.3600 h4         1 JQL       0.162000
     35 H38        130.8650   101.8940    37.4970 ha         1 JQL       0.162000
     36 H39        129.6370   108.7030    40.9500 h1         1 JQL       0.071367
     37 H40        128.3260   108.1230    39.9070 h1         1 JQL       0.071367
     38 H41        129.0880   107.0250    41.0720 h1         1 JQL       0.071367
     39 H42        125.6100    97.0820    38.3210 ha         1 JQL       0.138500
     40 H43        123.5260   100.6820    39.3560 ha         1 JQL       0.138500
     41 H44        123.5740    95.7880    38.7150 ha         1 JQL       0.128500
     42 H45        121.4810    99.3750    39.7540 ha         1 JQL       0.128500
     43 H46        121.4900    96.9180    39.4360 ha         1 JQL       0.128000
     44 H47        132.9750   104.4480    34.6960 h1         1 JQL       0.065700
     45 H34        127.4960    98.3550    37.7910 h4         1 JQL       0.179000
     46 H36        130.8100   104.0560    38.0500 hn         1 JQL       0.378500
     47 H48        134.7170   106.7270    33.7540 hc         1 JQL       0.055700
     48 H49        133.7460   105.6170    32.7940 hc         1 JQL       0.055700
     49 H53        132.8010   108.1210    33.2180 hc         1 JQL       0.058700
     50 H54        131.6820   106.7740    33.4520 hc         1 JQL       0.058700
     51 H56        131.5770   107.8770    35.6040 h1         1 JQL       0.056200
     52 H55        133.3130   108.2110    35.5850 h1         1 JQL       0.056200
     53 C30        134.9080   104.8670    35.5340 c3         1 JQL      -0.100100
     54 H52        135.4720   104.3200    34.7770 hc         1 JQL       0.047033
     55 H51        135.5070   105.7260    35.8420 hc         1 JQL       0.047033
     56 H50        134.7780   104.2090    36.3910 hc         1 JQL       0.047033
@<TRIPOS>BOND
     1     1     7 1   
     2     1    21 1   
     3     1    26 2   
     4     2     4 2   
     5     2    20 1   
     6     2    32 1   
     7     3    19 1   
     8     3    25 2   
     9     3    33 1   
    10     4     6 1   
    11     4    27 1   
    12     5     6 2   
    13     5    23 1   
    14     5    34 1   
    15     6    35 1   
    16     7     9 ar  
    17     7    10 ar  
    18     8    24 1   
    19     8    36 1   
    20     8    37 1   
    21     8    38 1   
    22     9    11 ar  
    23     9    39 1   
    24    10    12 ar  
    25    10    40 1   
    26    11    13 ar  
    27    11    41 1   
    28    12    13 ar  
    29    12    42 1   
    30    13    43 1   
    31    14    17 1   
    32    14    29 1   
    33    14    44 1   
    34    14    53 1   
    35    15    16 2   
    36    15    17 1   
    37    15    19 1   
    38    17    31 1   
    39    18    19 2   
    40    18    22 1   
    41    18    24 1   
    42    20    21 2   
    43    20    23 1   
    44    22    27 1   
    45    22    28 2   
    46    23    26 1   
    47    24    25 1   
    48    26    45 1   
    49    27    46 1   
    50    29    30 1   
    51    29    47 1   
    52    29    48 1   
    53    30    31 1   
    54    30    49 1   
    55    30    50 1   
    56    31    51 1   
    57    31    52 1   
    58    53    54 1   
    59    53    55 1   
    60    53    56 1   
@<TRIPOS>SUBSTRUCTURE
     1 JQL         1 TEMP              0 ****  ****    0 ROOT
