@<TRIPOS>MOLECULE
JQL
   56    60     1     0     0
SMALL
No Charge or Current Charge


@<TRIPOS>ATOM
      1 C10        125.8040    99.8330    38.6170 cc         1 JQL       0.128400
      2 C11        127.7030   102.7420    38.7650 cc         1 JQL      -0.122000
      3 C15        131.9470   107.9150    38.0920 cc         1 JQL       0.260900
      4 C16        128.9130   102.9970    38.1420 cd         1 JQL       0.078600
      5 C18        128.8700   100.7220    37.1310 cc         1 JQL      -0.092000
      6 C19        129.4810   101.9600    37.3130 cd         1 JQL      -0.171000
      7 C21        124.6730    98.9270    38.8770 ca         1 JQL      -0.016800
      8 C22        129.3550   108.1210    40.4360 c3         1 JQL       0.069900
      9 C23        124.7570    97.5420    38.6020 ca         1 JQL      -0.090000
     10 C24        123.4870    99.4260    39.4630 ca         1 JQL      -0.090000
     11 C25        123.6750    96.6880    38.8810 ca         1 JQL      -0.117500
     12 C26        122.4060    98.5710    39.7410 ca         1 JQL      -0.117500
     13 C27        122.4980    97.2020    39.4480 ca         1 JQL      -0.107000
     14 C28        133.7830   105.3050    35.0600 c5         1 JQL       0.108700
     15 C1         132.1420   105.6530    36.9420 c          1 JQL       0.661700
     16 O2         132.0250   104.4420    37.0470 o          1 JQL      -0.653100
     17 N3         132.9540   106.1940    35.9170 n          1 JQL      -0.391800
     18 C4         130.3990   106.4530    38.7550 cd         1 JQL      -0.158600
     19 C5         131.4720   106.6110    37.8740 cc         1 JQL      -0.254600
     20 C6         127.0560   101.5390    38.6210 cd         1 JQL      -0.052000
     21 N7         125.9150   101.1040    39.1170 nc         1 JQL      -0.295600
     22 C8         129.4470   105.3080    39.0010 c          1 JQL       0.633700
     23 N9         127.6680   100.5940    37.8200 na         1 JQL       0.120100
     24 N12        130.3210   107.7040    39.4050 na         1 JQL       0.179800
     25 N13        131.2860   108.6020    38.9880 nd         1 JQL      -0.512800
     26 C14        126.8590    99.4770    37.8070 cd         1 JQL      -0.275100
     27 N17        129.6320   104.1830    38.2280 ns         1 JQL      -0.396100
     28 O20        128.5560   105.3830    39.8340 o          1 JQL      -0.588100
     29 C29        134.1400   106.2400    33.8710 c5         1 JQL      -0.094400
     30 C31        132.8420   107.0640    33.7340 c5         1 JQL      -0.098400
     31 C32        132.6040   107.4540    35.2110 c5         1 JQL       0.102000
     32 H33        127.2210   103.4890    39.3810 ha         1 JQL       0.172000
     33 H35        132.8080   108.3900    37.6430 h4         1 JQL       0.045100
     34 H37        129.2280    99.8950    36.5320 h4         1 JQL       0.144000
     35 H38        130.4260   102.1420    36.8110 ha         1 JQL       0.144000
     36 H39        129.5590   109.1520    40.7480 h1         1 JQL       0.071367
     37 H40        128.3390   108.0650    40.0300 h1         1 JQL       0.071367
     38 H41        129.4400   107.4600    41.3070 h1         1 JQL       0.071367
     39 H42        125.6600    97.1130    38.1780 ha         1 JQL       0.120500
     40 H43        123.3960   100.4830    39.7000 ha         1 JQL       0.120500
     41 H44        123.7520    95.6250    38.6620 ha         1 JQL       0.110500
     42 H45        121.4980    98.9720    40.1860 ha         1 JQL       0.110500
     43 H46        121.6620    96.5400    39.6640 ha         1 JQL       0.110000
     44 H47        133.1900   104.4480    34.7090 h1         1 JQL       0.065700
     45 H34        127.0830    98.5790    37.2450 h4         1 JQL       0.229000
     46 H36        130.4680   104.2480    37.6600 hn         1 JQL       0.378500
     47 H48        134.9950   106.8870    34.1000 hc         1 JQL       0.055700
     48 H49        134.3860   105.6810    32.9600 hc         1 JQL       0.055700
     49 H53        132.9570   107.9370    33.0810 hc         1 JQL       0.058700
     50 H54        132.0180   106.4570    33.3390 hc         1 JQL       0.058700
     51 H56        131.5640   107.7650    35.3790 h1         1 JQL       0.056200
     52 H55        133.2720   108.2710    35.5110 h1         1 JQL       0.056200
     53 C30        135.0480   104.7840    35.7760 c3         1 JQL      -0.100100
     54 H52        135.6730   104.2000    35.0900 hc         1 JQL       0.047033
     55 H51        135.6540   105.6110    36.1650 hc         1 JQL       0.047033
     56 H50        134.7860   104.1360    36.6190 hc         1 JQL       0.047033
@<TRIPOS>BOND
     1     1     7 1   
     2     1    21 1   
     3     1    26 2   
     4     2     4 2   
     5     2    20 1   
     6     2    32 1   
     7     3    19 1   
     8     3    25 2   
     9     3    33 1   
    10     4     6 1   
    11     4    27 1   
    12     5     6 2   
    13     5    23 1   
    14     5    34 1   
    15     6    35 1   
    16     7     9 ar  
    17     7    10 ar  
    18     8    24 1   
    19     8    36 1   
    20     8    37 1   
    21     8    38 1   
    22     9    11 ar  
    23     9    39 1   
    24    10    12 ar  
    25    10    40 1   
    26    11    13 ar  
    27    11    41 1   
    28    12    13 ar  
    29    12    42 1   
    30    13    43 1   
    31    14    17 1   
    32    14    29 1   
    33    14    44 1   
    34    14    53 1   
    35    15    16 2   
    36    15    17 1   
    37    15    19 1   
    38    17    31 1   
    39    18    19 2   
    40    18    22 1   
    41    18    24 1   
    42    20    21 2   
    43    20    23 1   
    44    22    27 1   
    45    22    28 2   
    46    23    26 1   
    47    24    25 1   
    48    26    45 1   
    49    27    46 1   
    50    29    30 1   
    51    29    47 1   
    52    29    48 1   
    53    30    31 1   
    54    30    49 1   
    55    30    50 1   
    56    31    51 1   
    57    31    52 1   
    58    53    54 1   
    59    53    55 1   
    60    53    56 1   
@<TRIPOS>SUBSTRUCTURE
     1 JQL         1 TEMP              0 ****  ****    0 ROOT
