@<TRIPOS>MOLECULE
JQN
   36    38     1     0     0
SMALL
No Charge or Current Charge


@<TRIPOS>ATOM
      1 C1           7.4020    -2.0210     0.0160 c3         1 JQN      -0.045800
      2 C2           6.1570    -1.1470     0.0140 ca         1 JQN      -0.079300
      3 C3           6.2720     0.2540     0.0200 ca         1 JQN      -0.097500
      4 C4           5.1200     1.0600     0.0210 ca         1 JQN      -0.107500
      5 C5           3.8400     0.4780     0.0170 ca         1 JQN      -0.109000
      6 C6           3.7240    -0.9290     0.0130 ca         1 JQN      -0.107500
      7 C7           4.8770    -1.7330     0.0120 ca         1 JQN      -0.097500
      8 S8           2.4140     1.5730     0.0180 ss         1 JQN      -0.094000
      9 C9           0.9280     0.4620     0.0050 c3         1 JQN      -0.082400
     10 C10         -0.4100     1.2240     0.0020 c          1 JQN       0.600700
     11 O11         -0.4380     2.4500     0.0080 o          1 JQN      -0.504100
     12 C12         -1.7000     0.4300    -0.0070 ca         1 JQN      -0.210600
     13 C13         -1.6980    -0.9960    -0.0150 ca         1 JQN      -0.031000
     14 C14         -2.9080    -1.7190    -0.0240 ca         1 JQN      -0.166000
     15 C15         -4.1000    -0.9950    -0.0250 ca         1 JQN       0.005000
     16 C16         -4.1290     0.3800    -0.0180 ca         1 JQN      -0.162300
     17 C17         -2.9410     1.1220    -0.0090 ca         1 JQN       0.003000
     18 C18         -5.5790     0.8590    -0.0210 c5         1 JQN      -0.117100
     19 C19         -6.3970    -0.4720    -0.0320 c          1 JQN       0.566000
     20 O20         -7.6080    -0.6570    -0.0380 o          1 JQN      -0.511000
     21 N21         -5.4150    -1.4410    -0.0330 ns         1 JQN      -0.149000
     22 H11C         7.7150    -2.2500     1.0420 hc         1 JQN       0.042367
     23 H12C         7.2250    -2.9720    -0.5010 hc         1 JQN       0.042367
     24 H13C         8.2400    -1.5250    -0.4880 hc         1 JQN       0.042367
     25 H3           7.2540     0.7220     0.0250 ha         1 JQN       0.111000
     26 H7           4.7740    -2.8160     0.0110 ha         1 JQN       0.111000
     27 H4           5.2230     2.1430     0.0260 ha         1 JQN       0.115000
     28 H6           2.7540    -1.4160     0.0110 ha         1 JQN       0.115000
     29 H91C         0.9570    -0.1670    -0.8910 h1         1 JQN       0.084200
     30 H92C         0.9480    -0.1770     0.8950 h1         1 JQN       0.084200
     31 H13         -0.7670    -1.5580    -0.0140 ha         1 JQN       0.115000
     32 H17         -2.9830     2.2100    -0.0030 ha         1 JQN       0.142000
     33 H14         -2.9120    -2.8070    -0.0290 ha         1 JQN       0.127000
     34 H21         -5.6410    -2.4270    -0.0390 hn         1 JQN       0.175000
     35 H181        -5.8620     1.4430     0.8610 hc         1 JQN       0.095200
     36 H182        -5.8550     1.4520    -0.9000 hc         1 JQN       0.095200
@<TRIPOS>BOND
     1     1     2 1   
     2     1    22 1   
     3     1    23 1   
     4     1    24 1   
     5     2     3 ar  
     6     2     7 ar  
     7     3     4 ar  
     8     3    25 1   
     9     4     5 ar  
    10     4    27 1   
    11     5     6 ar  
    12     5     8 1   
    13     6     7 ar  
    14     6    28 1   
    15     7    26 1   
    16     8     9 1   
    17     9    10 1   
    18     9    29 1   
    19     9    30 1   
    20    10    11 2   
    21    10    12 1   
    22    12    13 ar  
    23    12    17 ar  
    24    13    14 ar  
    25    13    31 1   
    26    14    15 ar  
    27    14    33 1   
    28    15    16 ar  
    29    15    21 1   
    30    16    17 ar  
    31    16    18 1   
    32    17    32 1   
    33    18    19 1   
    34    18    35 1   
    35    18    36 1   
    36    19    20 2   
    37    19    21 1   
    38    21    34 1   
@<TRIPOS>SUBSTRUCTURE
     1 JQN         1 TEMP              0 ****  ****    0 ROOT
