@<TRIPOS>MOLECULE
JQN
   36    38     1     0     0
SMALL
abcg2


@<TRIPOS>ATOM
      1 C1           7.3370    -1.9170    -0.0240 c3         1 JQN      -0.045800
      2 C2           6.0740    -1.1080    -0.0150 ca         1 JQN      -0.079300
      3 C3           6.1050     0.2830    -0.1170 ca         1 JQN      -0.097500
      4 C4           4.9440     1.0350    -0.0830 ca         1 JQN      -0.107500
      5 C5           3.7000     0.4160     0.0600 ca         1 JQN      -0.109000
      6 C6           3.6550    -0.9710     0.1610 ca         1 JQN      -0.107500
      7 C7           4.8290    -1.7130     0.1200 ca         1 JQN      -0.097500
      8 S8           2.3010     1.4900     0.1100 ss         1 JQN      -0.094000
      9 C9           0.9210     0.3280     0.0970 c3         1 JQN      -0.082400
     10 C10         -0.3680     1.1200     0.0800 c          1 JQN       0.600700
     11 O11         -0.3390     2.3330     0.1120 o          1 JQN      -0.504100
     12 C12         -1.6400     0.3720     0.0300 ca         1 JQN      -0.210600
     13 C13         -1.6790    -1.0230    -0.0210 ca         1 JQN      -0.031000
     14 C14         -2.8790    -1.7170    -0.0720 ca         1 JQN      -0.166000
     15 C15         -4.0470    -0.9750    -0.0720 ca         1 JQN       0.005000
     16 C16         -4.0350     0.4230    -0.0190 ca         1 JQN      -0.162300
     17 C17         -2.8440     1.0980     0.0310 ca         1 JQN       0.003000
     18 C18         -5.4520     0.9000    -0.0320 c5         1 JQN      -0.117100
     19 C19         -6.2540    -0.3880    -0.1060 c          1 JQN       0.566000
     20 O20         -7.4570    -0.5090    -0.1440 o          1 JQN      -0.511000
     21 N21         -5.3510    -1.4180    -0.1210 ns         1 JQN      -0.149000
     22 H11C         7.7380    -2.0300     0.9860 hc         1 JQN       0.042367
     23 H12C         7.1690    -2.9180    -0.4190 hc         1 JQN       0.042367
     24 H13C         8.1120    -1.4420    -0.6260 hc         1 JQN       0.042367
     25 H3           7.0540     0.7920    -0.2350 ha         1 JQN       0.111000
     26 H7           4.7630    -2.7920     0.1940 ha         1 JQN       0.111000
     27 H4           5.0080     2.1130    -0.1720 ha         1 JQN       0.115000
     28 H6           2.7180    -1.5000     0.2720 ha         1 JQN       0.115000
     29 H91C         0.9740    -0.3200    -0.7800 h1         1 JQN       0.084200
     30 H92C         0.9410    -0.3100     0.9840 h1         1 JQN       0.084200
     31 H13         -0.7640    -1.6010    -0.0210 ha         1 JQN       0.115000
     32 H17         -2.8270     2.1790     0.0700 ha         1 JQN       0.142000
     33 H14         -2.8920    -2.7970    -0.1120 ha         1 JQN       0.127000
     34 H21         -5.6230    -2.3900    -0.1660 hn         1 JQN       0.175000
     35 H181        -5.7270     1.4570     0.8670 hc         1 JQN       0.095200
     36 H182        -5.6860     1.5390    -0.8860 hc         1 JQN       0.095200
@<TRIPOS>BOND
     1     1     2 1   
     2     1    22 1   
     3     1    23 1   
     4     1    24 1   
     5     2     3 ar  
     6     2     7 ar  
     7     3     4 ar  
     8     3    25 1   
     9     4     5 ar  
    10     4    27 1   
    11     5     6 ar  
    12     5     8 1   
    13     6     7 ar  
    14     6    28 1   
    15     7    26 1   
    16     8     9 1   
    17     9    10 1   
    18     9    29 1   
    19     9    30 1   
    20    10    11 2   
    21    10    12 1   
    22    12    13 ar  
    23    12    17 ar  
    24    13    14 ar  
    25    13    31 1   
    26    14    15 ar  
    27    14    33 1   
    28    15    16 ar  
    29    15    21 1   
    30    16    17 ar  
    31    16    18 1   
    32    17    32 1   
    33    18    19 1   
    34    18    35 1   
    35    18    36 1   
    36    19    20 2   
    37    19    21 1   
    38    21    34 1   
@<TRIPOS>SUBSTRUCTURE
     1 JQN         1 TEMP              0 ****  ****    0 ROOT
