@<TRIPOS>MOLECULE
JQO
   52    52     1     0     0
SMALL
No Charge or Current Charge


@<TRIPOS>ATOM
      1 N1          20.3620    43.6940    40.7600 ns         1 JQO      -0.497900
      2 C4          19.7540    44.2710    38.4200 c3         1 JQO      -0.084400
      3 C5          19.2370    43.9750    39.8560 c3         1 JQO       0.105700
      4 C6          18.1960    42.8200    39.8940 c3         1 JQO       0.148600
      5 C7          20.3090    43.8000    42.1370 c          1 JQO       0.579100
      6 C8          21.6350    43.4290    42.8900 c3         1 JQO       0.136500
      7 C13         24.8360    44.8980    42.5770 ca         1 JQO       0.017500
      8 C15         25.5010    45.1290    40.2500 ca         1 JQO       0.227000
      9 C17         23.4160    46.1220    41.0080 ca         1 JQO       0.017500
     10 C1          21.3230    45.5310    36.8460 c3         1 JQO      -0.091100
     11 C12         23.6640    45.6340    42.3070 ca         1 JQO      -0.334500
     12 C14         25.7530    44.6460    41.5420 ca         1 JQO      -0.175500
     13 C16         24.3400    45.8660    39.9810 ca         1 JQO      -0.175500
     14 C2          20.8150    45.4030    38.2990 c3         1 JQO      -0.058700
     15 C3          20.2980    46.7640    38.8210 c3         1 JQO      -0.091100
     16 C9          21.5940    41.9690    43.4380 c3         1 JQO      -0.043700
     17 N2          21.9950    44.3790    43.9920 n7         1 JQO      -0.853300
     18 O1          17.0250    43.1480    39.1310 oh         1 JQO      -0.656000
     19 O2          19.3000    44.1870    42.7140 o          1 JQO      -0.607100
     20 S1          22.4850    45.9320    43.6270 sy         1 JQO       1.155600
     21 H1          21.2350    43.3770    40.3540 hn         1 JQO       0.312500
     22 H2          18.9000    44.5270    37.7800 hc         1 JQO       0.051700
     23 H3          20.1780    43.3460    38.0090 hc         1 JQO       0.051700
     24 H4          18.7280    44.8750    40.2260 h1         1 JQO       0.099700
     25 H5          17.9140    42.6240    40.9370 h1         1 JQO       0.022200
     26 H6          18.6610    41.9050    39.5020 h1         1 JQO       0.022200
     27 H7          22.4230    43.4340    42.1260 h1         1 JQO       0.072700
     28 H8          20.5580    40.6880    44.8790 hc         1 JQO       0.043033
     29 H9          20.8340    42.3340    45.4710 hc         1 JQO       0.043033
     30 H10         19.5590    42.0140    44.2740 hc         1 JQO       0.043033
     31 H11         25.0300    44.5160    43.5780 ha         1 JQO       0.139500
     32 H12         22.5190    46.6990    40.7920 ha         1 JQO       0.139500
     33 H13         21.7410    44.5800    36.4950 hc         1 JQO       0.035700
     34 H14         20.5090    45.8190    36.1700 hc         1 JQO       0.035700
     35 H15         22.1120    46.2900    36.7760 hc         1 JQO       0.035700
     36 H16         22.9750    40.4120    44.1240 hc         1 JQO       0.043033
     37 H17         23.7100    41.5810    43.0120 hc         1 JQO       0.043033
     38 H18         23.3920    42.0400    44.6980 hc         1 JQO       0.043033
     39 H19         26.6560    44.0750    41.7410 ha         1 JQO       0.138500
     40 H20         24.1560    46.2390    38.9770 ha         1 JQO       0.138500
     41 H21         21.6810    45.1210    38.9080 hc         1 JQO       0.041700
     42 H22         20.0620    46.7150    39.8910 hc         1 JQO       0.035700
     43 H23         21.0580    47.5430    38.6870 hc         1 JQO       0.035700
     44 H24         19.3940    47.0730    38.2810 hc         1 JQO       0.035700
     45 H25         21.2740    41.3310    42.6040 hc         1 JQO       0.037700
     46 H26         21.1610    44.5720    44.5450 hn         1 JQO       0.506000
     47 H27         16.4130    42.3810    39.2000 ho         1 JQO       0.449000
     48 C10         20.5740    41.7440    44.5840 c3         1 JQO      -0.089600
     49 C11         23.0040    41.4720    43.8440 c3         1 JQO      -0.089600
     50 F1          26.3850    44.8840    39.2580 f          1 JQO      -0.169000
     51 O3          21.3100    46.6360    43.1120 o          1 JQO      -0.533000
     52 O4          23.2190    46.3830    44.8110 o          1 JQO      -0.533000
@<TRIPOS>BOND
     1     1     3 1   
     2     1     5 1   
     3     1    21 1   
     4     2     3 1   
     5     2    14 1   
     6     2    22 1   
     7     2    23 1   
     8     3     4 1   
     9     3    24 1   
    10     4    18 1   
    11     4    25 1   
    12     4    26 1   
    13     5     6 1   
    14     5    19 2   
    15     6    16 1   
    16     6    17 1   
    17     6    27 1   
    18     7    11 ar  
    19     7    12 ar  
    20     7    31 1   
    21     8    12 ar  
    22     8    13 ar  
    23     8    50 1   
    24     9    11 ar  
    25     9    13 ar  
    26     9    32 1   
    27    10    14 1   
    28    10    33 1   
    29    10    34 1   
    30    10    35 1   
    31    11    20 1   
    32    12    39 1   
    33    13    40 1   
    34    14    15 1   
    35    14    41 1   
    36    15    42 1   
    37    15    43 1   
    38    15    44 1   
    39    16    45 1   
    40    16    48 1   
    41    16    49 1   
    42    17    20 1   
    43    17    46 1   
    44    18    47 1   
    45    20    51 2   
    46    20    52 2   
    47    28    48 1   
    48    29    48 1   
    49    30    48 1   
    50    36    49 1   
    51    37    49 1   
    52    38    49 1   
@<TRIPOS>SUBSTRUCTURE
     1 JQO         1 TEMP              0 ****  ****    0 ROOT
