@<TRIPOS>MOLECULE
JQO
   52    52     1     0     0
SMALL
abcg2


@<TRIPOS>ATOM
      1 N1          20.5560    43.2160    40.8550 ns         1 JQO      -0.497900
      2 C4          20.3200    43.7310    38.4790 c3         1 JQO      -0.084400
      3 C5          19.6070    43.5770    39.8190 c3         1 JQO       0.105700
      4 C6          18.5070    42.5180    39.7810 c3         1 JQO       0.148600
      5 C7          20.7680    43.9070    41.9820 c          1 JQO       0.579100
      6 C8          21.7550    43.2490    42.9540 c3         1 JQO       0.136500
      7 C13         24.5180    45.2190    41.2370 ca         1 JQO       0.017500
      8 C15         23.9230    47.0910    39.8940 ca         1 JQO       0.227000
      9 C17         23.0610    46.9430    42.1070 ca         1 JQO       0.017500
     10 C1          22.1600    44.7750    37.1440 c3         1 JQO      -0.091100
     11 C12         23.7520    45.7470    42.2670 ca         1 JQO      -0.334500
     12 C14         24.6050    45.8980    40.0320 ca         1 JQO      -0.175500
     13 C16         23.1450    47.6250    40.9070 ca         1 JQO      -0.175500
     14 C2          21.3330    44.8760    38.4220 c3         1 JQO      -0.058700
     15 C3          20.6500    46.2380    38.5130 c3         1 JQO      -0.091100
     16 C9          21.1270    42.0120    43.6310 c3         1 JQO      -0.043700
     17 N2          22.1830    44.2200    43.9460 n7         1 JQO      -0.853300
     18 O1          17.5310    42.9220    38.8520 oh         1 JQO      -0.656000
     19 O2          20.2100    44.9570    42.2650 o          1 JQO      -0.607100
     20 S1          23.6680    44.9180    43.8310 sy         1 JQO       1.155600
     21 H1          21.1090    42.3860    40.6930 hn         1 JQO       0.312500
     22 H2          19.5750    43.8800    37.6930 hc         1 JQO       0.051700
     23 H3          20.8230    42.7840    38.2480 hc         1 JQO       0.051700
     24 H4          19.1540    44.5230    40.1160 h1         1 JQO       0.099700
     25 H5          18.0890    42.4130    40.7910 h1         1 JQO       0.022200
     26 H6          18.9510    41.5490    39.5130 h1         1 JQO       0.022200
     27 H7          22.6270    42.9010    42.3920 h1         1 JQO       0.072700
     28 H8          19.4790    41.4580    44.9050 hc         1 JQO       0.043033
     29 H9          20.1270    43.0510    45.2610 hc         1 JQO       0.043033
     30 H10         19.0980    42.8060    43.8470 hc         1 JQO       0.043033
     31 H11         25.0550    44.2890    41.3630 ha         1 JQO       0.139500
     32 H12         22.4670    47.3560    42.9110 ha         1 JQO       0.139500
     33 H13         22.6730    43.8150    37.0780 hc         1 JQO       0.035700
     34 H14         21.5270    44.8750    36.2580 hc         1 JQO       0.035700
     35 H15         22.9170    45.5590    37.0990 hc         1 JQO       0.035700
     36 H16         21.7300    40.3770    44.9030 hc         1 JQO       0.043033
     37 H17         23.0320    40.9940    43.8890 hc         1 JQO       0.043033
     38 H18         22.5060    41.9060    45.3060 hc         1 JQO       0.043033
     39 H19         25.1990    45.5060    39.2170 ha         1 JQO       0.138500
     40 H20         22.6200    48.5590    40.7630 ha         1 JQO       0.138500
     41 H21         22.0170    44.7750    39.2710 hc         1 JQO       0.041700
     42 H22         20.1570    46.3920    39.4740 hc         1 JQO       0.035700
     43 H23         21.3680    47.0480    38.3870 hc         1 JQO       0.035700
     44 H24         19.8950    46.3460    37.7300 hc         1 JQO       0.035700
     45 H25         20.8220    41.3390    42.8240 hc         1 JQO       0.037700
     46 H26         21.4630    44.9030    44.1660 hn         1 JQO       0.506000
     47 H27         16.8790    42.2200    38.7700 ho         1 JQO       0.449000
     48 C10         19.8890    42.3600    44.4510 c3         1 JQO      -0.089600
     49 C11         22.1610    41.2850    44.4790 c3         1 JQO      -0.089600
     50 F1          24.0110    47.7560    38.7390 f          1 JQO      -0.169000
     51 O3          23.7080    45.9270    44.8740 o          1 JQO      -0.533000
     52 O4          24.6560    43.8530    43.8080 o          1 JQO      -0.533000
@<TRIPOS>BOND
     1     1     3 1   
     2     1     5 1   
     3     1    21 1   
     4     2     3 1   
     5     2    14 1   
     6     2    22 1   
     7     2    23 1   
     8     3     4 1   
     9     3    24 1   
    10     4    18 1   
    11     4    25 1   
    12     4    26 1   
    13     5     6 1   
    14     5    19 2   
    15     6    16 1   
    16     6    17 1   
    17     6    27 1   
    18     7    11 ar  
    19     7    12 ar  
    20     7    31 1   
    21     8    12 ar  
    22     8    13 ar  
    23     8    50 1   
    24     9    11 ar  
    25     9    13 ar  
    26     9    32 1   
    27    10    14 1   
    28    10    33 1   
    29    10    34 1   
    30    10    35 1   
    31    11    20 1   
    32    12    39 1   
    33    13    40 1   
    34    14    15 1   
    35    14    41 1   
    36    15    42 1   
    37    15    43 1   
    38    15    44 1   
    39    16    45 1   
    40    16    48 1   
    41    16    49 1   
    42    17    20 1   
    43    17    46 1   
    44    18    47 1   
    45    20    51 2   
    46    20    52 2   
    47    28    48 1   
    48    29    48 1   
    49    30    48 1   
    50    36    49 1   
    51    37    49 1   
    52    38    49 1   
@<TRIPOS>SUBSTRUCTURE
     1 JQO         1 TEMP              0 ****  ****    0 ROOT
