@<TRIPOS>MOLECULE
JQP
   60    64     1     0     0
SMALL
No Charge or Current Charge


@<TRIPOS>ATOM
      1 C10          1.0450     0.1240     0.6340 ca         1 JQP       0.251500
      2 C15         -4.7240     0.2590    -0.6420 ca         1 JQP      -0.155500
      3 C17         -7.2010    -0.0830    -1.0860 c3         1 JQP      -0.047800
      4 C20         -5.4140     4.3070     0.7350 c3         1 JQP      -0.047800
      5 C21         -3.8700     2.3550     0.2310 ca         1 JQP      -0.155500
      6 C24          1.1420     0.9750     1.7500 ca         1 JQP      -0.283000
      7 C26          3.9130     1.3900     0.0500 c6         1 JQP       0.078300
      8 C28          4.9090     3.5140    -0.9360 c6         1 JQP       0.150300
      9 C02         -0.8660    -4.6920    -0.4980 ca         1 JQP       0.170000
     10 C03         -0.1000    -4.4920    -1.6550 ca         1 JQP      -0.159500
     11 C04          0.9340    -3.5390    -1.6550 ca         1 JQP      -0.060000
     12 C05          1.1940    -2.7640    -0.5040 ca         1 JQP      -0.115500
     13 C06          0.4380    -3.0020     0.6660 ca         1 JQP      -0.060000
     14 C07         -0.5960    -3.9550     0.6640 ca         1 JQP      -0.159500
     15 C08          2.3040    -1.8040    -0.5020 cc         1 JQP       0.347500
     16 C09          2.2260    -0.5570     0.0740 cd         1 JQP      -0.266500
     17 N11         -0.1180     0.0030    -0.0360 nb         1 JQP      -0.233000
     18 C12         -1.1720     0.6890     0.4360 ca         1 JQP       0.391900
     19 N13         -2.3560     0.4810    -0.2600 nu         1 JQP      -0.924900
     20 C14         -3.6390     1.0370    -0.2060 ca         1 JQP       0.319000
     21 C16         -6.0330     0.7740    -0.6230 ca         1 JQP      -0.045300
     22 C18         -6.2530     2.0860    -0.1650 ca         1 JQP      -0.137000
     23 C19         -5.1750     2.8820     0.2610 ca         1 JQP      -0.045300
     24 N22         -1.1860     1.4930     1.5160 nb         1 JQP      -0.228000
     25 C23         -0.0190     1.6410     2.1700 ca         1 JQP       0.149900
     26 N25          3.4780    -0.0070    -0.2000 na         1 JQP      -0.150500
     27 C27          4.4400     2.0720    -1.2400 c6         1 JQP      -0.129400
     28 N29          5.9330     3.5180     0.1370 n7         1 JQP      -0.844400
     29 C30          5.4520     2.9030     1.3990 c6         1 JQP       0.150300
     30 C31          4.9910     1.4470     1.1610 c6         1 JQP      -0.129400
     31 C32          4.2350    -0.9670    -0.8660 cd         1 JQP       0.406400
     32 N33          3.5160    -2.0620    -1.0710 nc         1 JQP      -0.675000
     33 H151        -4.5520    -0.7560    -0.9900 ha         1 JQP       0.128500
     34 H171        -7.6080    -0.6690    -0.2540 hc         1 JQP       0.042700
     35 H172        -8.0130     0.5330    -1.4910 hc         1 JQP       0.042700
     36 H173        -6.8960    -0.7830    -1.8720 hc         1 JQP       0.042700
     37 H203        -5.3330     5.0140    -0.0980 hc         1 JQP       0.042700
     38 H201        -6.4120     4.4200     1.1750 hc         1 JQP       0.042700
     39 H202        -4.6840     4.6020     1.4980 hc         1 JQP       0.042700
     40 H211        -3.0400     2.9840     0.5330 ha         1 JQP       0.128500
     41 H241         2.0750     1.0950     2.2910 ha         1 JQP       0.136000
     42 H261         3.0450     1.9740     0.3830 h1         1 JQP       0.078700
     43 H282         5.3240     3.9680    -1.8490 h1         1 JQP       0.059450
     44 H281         4.0460     4.1240    -0.6270 h1         1 JQP       0.059450
     45 H041         1.5290    -3.3920    -2.5550 ha         1 JQP       0.123000
     46 H061         0.6530    -2.4520     1.5800 ha         1 JQP       0.123000
     47 H071        -1.1820    -4.1270     1.5630 ha         1 JQP       0.130000
     48 H131        -2.2860    -0.3110    -0.8980 hn         1 JQP       0.514000
     49 H181        -7.2630     2.4890    -0.1470 ha         1 JQP       0.112000
     50 H231        -0.0170     2.2980     3.0380 h4         1 JQP       0.024100
     51 H272         5.2770     1.5040    -1.6680 hc         1 JQP       0.057950
     52 H271         3.6500     2.0940    -2.0030 hc         1 JQP       0.057950
     53 H1           6.7490     2.9860    -0.1910 hn         1 JQP       0.408000
     54 H301         6.2550     2.9190     2.1520 h1         1 JQP       0.059450
     55 H302         4.6130     3.4930     1.8010 h1         1 JQP       0.059450
     56 H312         4.5930     1.0290     2.0950 hc         1 JQP       0.057950
     57 H311         5.8550     0.8280     0.8850 hc         1 JQP       0.057950
     58 H321         5.2550    -0.7890    -1.1850 h5         1 JQP       0.056100
     59 H031        -0.3050    -5.0760    -2.5480 ha         1 JQP       0.130000
     60 F01         -1.8570    -5.6090    -0.4980 f          1 JQP      -0.182000
@<TRIPOS>BOND
     1     1     6 ar  
     2     1    16 1   
     3     1    17 ar  
     4     2    20 ar  
     5     2    21 ar  
     6     2    33 1   
     7     3    21 1   
     8     3    34 1   
     9     3    35 1   
    10     3    36 1   
    11     4    23 1   
    12     4    37 1   
    13     4    38 1   
    14     4    39 1   
    15     5    20 ar  
    16     5    23 ar  
    17     5    40 1   
    18     6    25 ar  
    19     6    41 1   
    20     7    26 1   
    21     7    27 1   
    22     7    30 1   
    23     7    42 1   
    24     8    27 1   
    25     8    28 1   
    26     8    43 1   
    27     8    44 1   
    28     9    10 ar  
    29     9    14 ar  
    30     9    60 1   
    31    10    11 ar  
    32    10    59 1   
    33    11    12 ar  
    34    11    45 1   
    35    12    13 ar  
    36    12    15 1   
    37    13    14 ar  
    38    13    46 1   
    39    14    47 1   
    40    15    16 2   
    41    15    32 1   
    42    16    26 1   
    43    17    18 ar  
    44    18    19 1   
    45    18    24 ar  
    46    19    20 1   
    47    19    48 1   
    48    21    22 ar  
    49    22    23 ar  
    50    22    49 1   
    51    24    25 ar  
    52    25    50 1   
    53    26    31 1   
    54    27    51 1   
    55    27    52 1   
    56    28    29 1   
    57    28    53 1   
    58    29    30 1   
    59    29    54 1   
    60    29    55 1   
    61    30    56 1   
    62    30    57 1   
    63    31    32 2   
    64    31    58 1   
@<TRIPOS>SUBSTRUCTURE
     1 JQP         1 TEMP              0 ****  ****    0 ROOT
