@<TRIPOS>MOLECULE
JQP
   60    64     1     0     0
SMALL
abcg2


@<TRIPOS>ATOM
      1 C10          1.0260     0.3150     0.5070 ca         1 JQP       0.251500
      2 C15         -4.5940     0.5840    -1.0180 ca         1 JQP      -0.155500
      3 C17         -6.9620     0.3360    -1.7950 c3         1 JQP      -0.047800
      4 C20         -5.6220     3.8280     1.5730 c3         1 JQP      -0.047800
      5 C21         -3.9510     2.2310     0.6180 ca         1 JQP      -0.155500
      6 C24          1.1400     1.1370     1.6290 ca         1 JQP      -0.283000
      7 C26          3.8910     1.3780    -0.0620 c6         1 JQP       0.078300
      8 C28          4.9140     3.3750    -1.1470 c6         1 JQP       0.150300
      9 C02         -0.7640    -4.8430    -0.2150 ca         1 JQP       0.170000
     10 C03          0.1830    -4.8650    -1.2190 ca         1 JQP      -0.159500
     11 C04          1.1400    -3.8630    -1.2510 ca         1 JQP      -0.060000
     12 C05          1.1550    -2.8450    -0.2980 ca         1 JQP      -0.115500
     13 C06          0.1910    -2.8690     0.7120 ca         1 JQP      -0.060000
     14 C07         -0.7750    -3.8620     0.7580 ca         1 JQP      -0.159500
     15 C08          2.1940    -1.8140    -0.3610 cc         1 JQP       0.347500
     16 C09          2.1430    -0.4840     0.0050 cd         1 JQP      -0.266500
     17 N11         -0.1200     0.1950    -0.1450 nb         1 JQP      -0.233000
     18 C12         -1.1680     0.8830     0.3160 ca         1 JQP       0.391900
     19 N13         -2.3160     0.6720    -0.3810 nu         1 JQP      -0.924900
     20 C14         -3.6030     1.1800    -0.2300 ca         1 JQP       0.319000
     21 C16         -5.9090     1.0180    -0.9690 ca         1 JQP      -0.045300
     22 C18         -6.2390     2.0720    -0.1190 ca         1 JQP      -0.137000
     23 C19         -5.2700     2.6790     0.6710 ca         1 JQP      -0.045300
     24 N22         -1.1530     1.7150     1.3540 nb         1 JQP      -0.228000
     25 C23          0.0010     1.8270     1.9960 ca         1 JQP       0.149900
     26 N25          3.4090     0.0070    -0.2160 na         1 JQP      -0.150500
     27 C27          4.4200     1.9460    -1.3760 c6         1 JQP      -0.129400
     28 N29          5.9050     3.4920    -0.0920 n7         1 JQP      -0.844400
     29 C30          5.4320     2.9210     1.1570 c6         1 JQP       0.150300
     30 C31          4.9470     1.4750     1.0350 c6         1 JQP      -0.129400
     31 C32          4.1390    -1.0130    -0.7060 cd         1 JQP       0.406400
     32 N33          3.4470    -2.1190    -0.8010 nc         1 JQP      -0.675000
     33 H151        -4.3280    -0.2370    -1.6760 ha         1 JQP       0.128500
     34 H171        -7.2790    -0.5970    -1.3240 hc         1 JQP       0.042700
     35 H172        -7.8460     0.9600    -1.9110 hc         1 JQP       0.042700
     36 H173        -6.5910     0.0840    -2.7890 hc         1 JQP       0.042700
     37 H203        -5.1360     4.7480     1.2440 hc         1 JQP       0.042700
     38 H201        -6.6950     4.0100     1.5910 hc         1 JQP       0.042700
     39 H202        -5.2950     3.6440     2.5980 hc         1 JQP       0.042700
     40 H211        -3.2030     2.7020     1.2360 ha         1 JQP       0.128500
     41 H241         2.0540     1.2150     2.2000 ha         1 JQP       0.136000
     42 H261         3.0270     1.9780     0.2330 h1         1 JQP       0.078700
     43 H282         5.3310     3.7740    -2.0730 h1         1 JQP       0.059450
     44 H281         4.0620     4.0130    -0.8880 h1         1 JQP       0.059450
     45 H041         1.8840    -3.8720    -2.0370 ha         1 JQP       0.123000
     46 H061         0.1970    -2.1220     1.4940 ha         1 JQP       0.123000
     47 H071        -1.5160    -3.8760     1.5460 ha         1 JQP       0.130000
     48 H131        -2.2080    -0.0150    -1.1130 hn         1 JQP       0.514000
     49 H181        -7.2640     2.4230    -0.0750 ha         1 JQP       0.112000
     50 H231         0.0140     2.4930     2.8510 h4         1 JQP       0.024100
     51 H272         5.2480     1.3350    -1.7480 hc         1 JQP       0.057950
     52 H271         3.6350     1.9300    -2.1360 hc         1 JQP       0.057950
     53 H1           6.7510     3.0120    -0.3770 hn         1 JQP       0.408000
     54 H301         6.2290     2.9810     1.8990 h1         1 JQP       0.059450
     55 H302         4.6110     3.5430     1.5290 h1         1 JQP       0.059450
     56 H312         4.5390     1.1330     1.9900 hc         1 JQP       0.057950
     57 H311         5.7930     0.8230     0.7950 hc         1 JQP       0.057950
     58 H321         5.1760    -0.9030    -0.9830 h5         1 JQP       0.056100
     59 H031         0.1730    -5.6480    -1.9670 ha         1 JQP       0.130000
     60 F01         -1.6990    -5.8070    -0.1770 f          1 JQP      -0.182000
@<TRIPOS>BOND
     1     1     6 ar  
     2     1    16 1   
     3     1    17 ar  
     4     2    20 ar  
     5     2    21 ar  
     6     2    33 1   
     7     3    21 1   
     8     3    34 1   
     9     3    35 1   
    10     3    36 1   
    11     4    23 1   
    12     4    37 1   
    13     4    38 1   
    14     4    39 1   
    15     5    20 ar  
    16     5    23 ar  
    17     5    40 1   
    18     6    25 ar  
    19     6    41 1   
    20     7    26 1   
    21     7    27 1   
    22     7    30 1   
    23     7    42 1   
    24     8    27 1   
    25     8    28 1   
    26     8    43 1   
    27     8    44 1   
    28     9    10 ar  
    29     9    14 ar  
    30     9    60 1   
    31    10    11 ar  
    32    10    59 1   
    33    11    12 ar  
    34    11    45 1   
    35    12    13 ar  
    36    12    15 1   
    37    13    14 ar  
    38    13    46 1   
    39    14    47 1   
    40    15    16 2   
    41    15    32 1   
    42    16    26 1   
    43    17    18 ar  
    44    18    19 1   
    45    18    24 ar  
    46    19    20 1   
    47    19    48 1   
    48    21    22 ar  
    49    22    23 ar  
    50    22    49 1   
    51    24    25 ar  
    52    25    50 1   
    53    26    31 1   
    54    27    51 1   
    55    27    52 1   
    56    28    29 1   
    57    28    53 1   
    58    29    30 1   
    59    29    54 1   
    60    29    55 1   
    61    30    56 1   
    62    30    57 1   
    63    31    32 2   
    64    31    58 1   
@<TRIPOS>SUBSTRUCTURE
     1 JQP         1 TEMP              0 ****  ****    0 ROOT
