@<TRIPOS>MOLECULE
JQR
   47    50     1     0     0
SMALL
No Charge or Current Charge


@<TRIPOS>ATOM
      1 C8          -2.0080    -2.1160    19.3550 cc         1 JQR       0.138900
      2 C12          3.7810    -5.0130    17.6630 c6         1 JQR      -0.158700
      3 C11          2.4540    -4.5590    18.3260 c          1 JQR       0.621700
      4 C10         -0.0010    -2.4430    18.4120 cd         1 JQR      -0.113000
      5 C9          -0.9170    -1.4630    18.8490 cd         1 JQR      -0.207000
      6 C14          5.9240    -6.3880    17.8320 c6         1 JQR       0.154100
      7 C17          4.6320    -3.8500    17.0790 c6         1 JQR      -0.105400
      8 C6          -0.5650    -3.6640    18.6940 cc         1 JQR       0.064000
      9 C4          -0.0680    -4.9970    18.3800 cc         1 JQR       0.376000
     10 C2          -0.3680    -7.1710    18.0440 cd         1 JQR       0.544300
     11 C13          4.6150    -5.9780    18.5520 c6         1 JQR      -0.105400
     12 C16          5.9380    -4.3940    16.4500 c6         1 JQR       0.154100
     13 C5           1.2200    -5.3150    17.9800 cd         1 JQR      -0.374600
     14 N3          -0.9420    -6.0600    18.4550 nc         1 JQR      -0.707000
     15 O11          2.4740    -3.6610    19.1540 o          1 JQR      -0.522100
     16 O15          6.6480    -5.2110    17.4080 os         1 JQR      -0.446000
     17 O7          -1.8210    -3.4760    19.2380 os         1 JQR      -0.212000
     18 S1           1.2590    -6.9760    17.3930 ss         1 JQR       0.095600
     19 N7          -1.0860    -8.3330    18.0780 ns         1 JQR      -0.464400
     20 C7          -0.7050    -9.5960    17.6960 c          1 JQR       0.629700
     21 O2           0.4090    -9.8350    17.2570 o          1 JQR      -0.570100
     22 C3          -1.7260   -10.6910    17.8450 ca         1 JQR      -0.219600
     23 C20         -3.0190   -10.4420    18.3460 ca         1 JQR       0.380900
     24 N1          -3.9590   -11.4030    18.4910 nb         1 JQR      -0.677000
     25 C18         -3.6420   -12.6660    18.1360 ca         1 JQR       0.389300
     26 C15         -4.7270   -13.7080    18.3230 c3         1 JQR      -0.154400
     27 C21         -2.3800   -13.0120    17.6300 ca         1 JQR      -0.175000
     28 C19         -1.4040   -12.0160    17.4790 ca         1 JQR      -0.012000
     29 H1          -2.9370    -1.7630    19.7820 h4         1 JQR       0.052100
     30 H2           3.4880    -5.6200    16.7970 hc         1 JQR       0.061700
     31 H3           0.9380    -2.2480    17.9070 ha         1 JQR       0.165000
     32 H4          -0.7970    -0.3870    18.7800 ha         1 JQR       0.144000
     33 H5           5.6970    -7.0110    16.9540 h1         1 JQR       0.045200
     34 H6           6.5580    -6.9740    18.5120 h1         1 JQR       0.045200
     35 H7           4.8870    -3.1330    17.8720 hc         1 JQR       0.061450
     36 H8           4.0580    -3.2950    16.3240 hc         1 JQR       0.061450
     37 H9           4.8640    -5.4870    19.5030 hc         1 JQR       0.061450
     38 H10          4.0330    -6.8740    18.8050 hc         1 JQR       0.061450
     39 H11          5.7110    -4.9960    15.5580 h1         1 JQR       0.045200
     40 H12          6.5840    -3.5590    16.1420 h1         1 JQR       0.045200
     41 H13         -2.0230    -8.2530    18.4370 hn         1 JQR       0.350500
     42 H14         -3.3320    -9.4440    18.6470 h4         1 JQR       0.023100
     43 H15         -5.7190   -13.2930    18.1110 hc         1 JQR       0.059033
     44 H16         -4.5760   -14.5620    17.6540 hc         1 JQR       0.059033
     45 H17         -4.7300   -14.0820    19.3530 hc         1 JQR       0.059033
     46 H18         -2.1610   -14.0420    17.3600 ha         1 JQR       0.132000
     47 H19         -0.4210   -12.2720    17.0870 ha         1 JQR       0.142000
@<TRIPOS>BOND
     1     1     5 2   
     2     1    17 1   
     3     1    29 1   
     4     2     3 1   
     5     2     7 1   
     6     2    11 1   
     7     2    30 1   
     8     3    13 1   
     9     3    15 2   
    10     4     5 1   
    11     4     8 2   
    12     4    31 1   
    13     5    32 1   
    14     6    11 1   
    15     6    16 1   
    16     6    33 1   
    17     6    34 1   
    18     7    12 1   
    19     7    35 1   
    20     7    36 1   
    21     8     9 1   
    22     8    17 1   
    23     9    13 2   
    24     9    14 1   
    25    10    14 2   
    26    10    18 1   
    27    10    19 1   
    28    11    37 1   
    29    11    38 1   
    30    12    16 1   
    31    12    39 1   
    32    12    40 1   
    33    13    18 1   
    34    19    20 1   
    35    19    41 1   
    36    20    21 2   
    37    20    22 1   
    38    22    23 ar  
    39    22    28 ar  
    40    23    24 ar  
    41    23    42 1   
    42    24    25 ar  
    43    25    26 1   
    44    25    27 ar  
    45    26    43 1   
    46    26    44 1   
    47    26    45 1   
    48    27    28 ar  
    49    27    46 1   
    50    28    47 1   
@<TRIPOS>SUBSTRUCTURE
     1 JQR         1 TEMP              0 ****  ****    0 ROOT
