@<TRIPOS>MOLECULE
JQR
   47    50     1     0     0
SMALL
bcc


@<TRIPOS>ATOM
      1 C8          -1.9610    -2.3490    20.1190 cc         1 JQR       0.248600
      2 C12          3.8460    -5.3610    17.9730 c6         1 JQR      -0.158700
      3 C11          2.6360    -4.6290    18.5200 c          1 JQR       0.621700
      4 C10          0.0750    -2.3300    19.2450 cd         1 JQR      -0.196300
      5 C9          -0.9570    -1.5080    19.7680 cd         1 JQR      -0.290300
      6 C14          6.3270    -5.5100    17.8040 c6         1 JQR       0.130900
      7 C17          3.8320    -5.3030    16.4360 c6         1 JQR      -0.105400
      8 C6          -0.3810    -3.6160    19.3080 cc         1 JQR       0.173700
      9 C4           0.0920    -4.9250    18.9000 cc         1 JQR       0.441300
     10 C2          -0.3690    -7.0300    18.4600 cd         1 JQR       0.544300
     11 C13          5.1680    -4.7940    18.4810 c6         1 JQR      -0.105400
     12 C16          5.0780    -5.9780    15.8840 c6         1 JQR       0.130900
     13 C5           1.3620    -5.3440    18.5370 cd         1 JQR      -0.295000
     14 N3          -0.8610    -5.8970    18.8520 nc         1 JQR      -0.707000
     15 O11          2.7240    -3.4760    18.8980 o          1 JQR      -0.522100
     16 O15          6.2600    -5.4130    16.3990 os         1 JQR      -0.399600
     17 O7          -1.6300    -3.6150    19.8410 os         1 JQR      -0.300800
     18 S1           1.3100    -7.0360    18.1190 ss         1 JQR      -0.049300
     19 N7          -1.1670    -8.1320    18.3280 ns         1 JQR      -0.531400
     20 C7          -0.7130    -9.3520    17.9130 c          1 JQR       0.696700
     21 O2           0.4700    -9.5310    17.6950 o          1 JQR      -0.570100
     22 C3          -1.7220   -10.4210    17.7560 ca         1 JQR      -0.284900
     23 C20         -3.0600   -10.1780    17.4690 ca         1 JQR       0.446200
     24 N1          -3.9580   -11.1370    17.2970 nb         1 JQR      -0.677000
     25 C18         -3.5750   -12.4060    17.4030 ca         1 JQR       0.454600
     26 C15         -4.6170   -13.4650    17.2320 c3         1 JQR      -0.154400
     27 C21         -2.2480   -12.7500    17.6700 ca         1 JQR      -0.258300
     28 C19         -1.3130   -11.7520    17.8380 ca         1 JQR      -0.030000
     29 H1          -2.9300    -2.1880    20.5640 h4         1 JQR       0.052100
     30 H2           3.8020    -6.4170    18.2700 hc         1 JQR       0.061700
     31 H3           1.0230    -2.0020    18.8630 ha         1 JQR       0.183000
     32 H4          -0.9470    -0.4360    19.8730 ha         1 JQR       0.162000
     33 H5           6.3380    -6.5660    18.1150 h1         1 JQR       0.045200
     34 H6           7.2770    -5.0700    18.1090 h1         1 JQR       0.045200
     35 H7           3.7990    -4.2590    16.1110 hc         1 JQR       0.061450
     36 H8           2.9500    -5.7980    16.0230 hc         1 JQR       0.061450
     37 H9           5.2290    -3.7240    18.2730 hc         1 JQR       0.061450
     38 H10          5.2530    -4.9200    19.5630 hc         1 JQR       0.061450
     39 H11          5.0350    -7.0540    16.1100 h1         1 JQR       0.045200
     40 H12          5.1170    -5.8720    14.7990 h1         1 JQR       0.045200
     41 H13         -2.1320    -7.9980    18.6020 hn         1 JQR       0.350500
     42 H14         -3.4340    -9.1660    17.3440 h4         1 JQR       0.023100
     43 H15         -5.5690   -13.0300    16.9360 hc         1 JQR       0.059033
     44 H16         -4.3150   -14.1950    16.4800 hc         1 JQR       0.059033
     45 H17         -4.7630   -14.0130    18.1650 hc         1 JQR       0.059033
     46 H18         -1.9610   -13.7910    17.7410 ha         1 JQR       0.150000
     47 H19         -0.2800   -11.9980    18.0430 ha         1 JQR       0.160000
@<TRIPOS>BOND
     1     1     5 2   
     2     1    17 1   
     3     1    29 1   
     4     2     3 1   
     5     2     7 1   
     6     2    11 1   
     7     2    30 1   
     8     3    13 1   
     9     3    15 2   
    10     4     5 1   
    11     4     8 2   
    12     4    31 1   
    13     5    32 1   
    14     6    11 1   
    15     6    16 1   
    16     6    33 1   
    17     6    34 1   
    18     7    12 1   
    19     7    35 1   
    20     7    36 1   
    21     8     9 1   
    22     8    17 1   
    23     9    13 2   
    24     9    14 1   
    25    10    14 2   
    26    10    18 1   
    27    10    19 1   
    28    11    37 1   
    29    11    38 1   
    30    12    16 1   
    31    12    39 1   
    32    12    40 1   
    33    13    18 1   
    34    19    20 1   
    35    19    41 1   
    36    20    21 2   
    37    20    22 1   
    38    22    23 ar  
    39    22    28 ar  
    40    23    24 ar  
    41    23    42 1   
    42    24    25 ar  
    43    25    26 1   
    44    25    27 ar  
    45    26    43 1   
    46    26    44 1   
    47    26    45 1   
    48    27    28 ar  
    49    27    46 1   
    50    28    47 1   
@<TRIPOS>SUBSTRUCTURE
     1 JQR         1 TEMP              0 ****  ****    0 ROOT
