@<TRIPOS>MOLECULE
JQT
   78    83     1     0     0
SMALL
abcg2


@<TRIPOS>ATOM
      1 C02         -3.3930     6.6180     0.2790 cg         1 JQT       0.348000
      2 C03         -3.8480     5.2650     0.2710 ca         1 JQT      -0.053000
      3 C04         -5.1810     4.9820     0.5690 ca         1 JQT      -0.078000
      4 C05         -5.6060     3.6650     0.5470 ca         1 JQT      -0.094000
      5 C06         -4.7190     2.6400     0.2460 ca         1 JQT      -0.026000
      6 C07         -3.3890     2.9250    -0.0530 ca         1 JQT      -0.115300
      7 C08         -2.9560     4.2420    -0.0470 ca         1 JQT      -0.081000
      8 C09         -2.4030     1.8290    -0.3460 c3         1 JQT       0.218900
      9 C11         -2.5450    -0.4800    -0.9040 ca         1 JQT       0.201100
     10 C12         -3.4190    -1.5660    -1.0040 ca         1 JQT      -0.119300
     11 C13         -2.8610    -2.8360    -1.0440 ca         1 JQT      -0.044000
     12 C14         -1.4940    -3.0360    -0.9720 ca         1 JQT       0.040000
     13 C15         -0.6290    -1.9510    -0.8500 ca         1 JQT       0.173100
     14 C16         -1.1680    -0.6680    -0.8210 ca         1 JQT      -0.290000
     15 C19          2.9920    -1.7270    -0.5320 ca         1 JQT      -0.087300
     16 C20          4.0400    -0.8560    -0.1970 ca         1 JQT      -0.055300
     17 C21          5.3410    -1.3670    -0.0980 cp         1 JQT      -0.042000
     18 C22          5.5800    -2.7120    -0.3850 ca         1 JQT      -0.098000
     19 C23          4.5430    -3.5560    -0.7350 ca         1 JQT      -0.120000
     20 C24          3.2460    -3.0670    -0.7970 ca         1 JQT      -0.072000
     21 C25          6.4890    -0.5310     0.3260 cp         1 JQT      -0.029000
     22 C26          6.4810     0.1370     1.5510 ca         1 JQT      -0.098000
     23 C27          7.5860     0.8580     1.9690 ca         1 JQT      -0.110000
     24 C28          8.7190     0.9400     1.1710 ca         1 JQT       0.053100
     25 C29          8.7320     0.2910    -0.0680 ca         1 JQT       0.052100
     26 C30          7.6240    -0.4410    -0.4740 ca         1 JQT      -0.099000
     27 C32         10.9890     1.3930     0.9140 c6         1 JQT       0.118600
     28 C33         10.7290     1.3800    -0.5730 c6         1 JQT       0.118600
     29 C35          3.7430     0.6010     0.0290 c3         1 JQT      -0.055800
     30 C36         -4.9140    -1.3910    -1.0400 c3         1 JQT       0.231100
     31 C38         -5.0360    -1.6380     1.3710 c5         1 JQT       0.117800
     32 C39         -6.0280    -1.2570     2.4860 c5         1 JQT       0.148300
     33 C40         -7.1180    -0.4810     1.7460 c5         1 JQT      -0.059400
     34 C41         -6.9050    -0.8160     0.2800 c5         1 JQT       0.039500
     35 C42         -7.5270     0.1750    -0.7290 c          1 JQT       0.728000
     36 N01         -3.0260     7.7100     0.2900 n1         1 JQT      -0.504000
     37 N37         -5.4430    -0.8690     0.2060 n3         1 JQT      -0.702600
     38 O10         -3.1030     0.7430    -0.9110 os         1 JQT      -0.308100
     39 O17          0.6800    -2.2240    -0.7770 os         1 JQT      -0.338100
     40 O31          9.7840     1.6450     1.6200 os         1 JQT      -0.331100
     41 O34          9.7990     0.3570    -0.8990 os         1 JQT      -0.331100
     42 O43         -6.5950    -2.3870     3.1200 oh         1 JQT      -0.664000
     43 CL          -0.8430    -4.6390    -1.0180 cl         1 JQT      -0.211000
     44 H1          -5.8690     5.7830     0.8040 ha         1 JQT       0.116000
     45 H2          -6.6380     3.4220     0.7560 ha         1 JQT       0.163000
     46 H3          -5.0710     1.6140     0.2430 ha         1 JQT       0.189000
     47 H4          -1.9290     4.4820    -0.2910 ha         1 JQT       0.105000
     48 H5          -1.6210     2.1970    -1.0200 h1         1 JQT       0.031200
     49 H6          -1.9100     1.5200     0.5840 h1         1 JQT       0.031200
     50 H7          -3.5150    -3.6960    -1.1170 ha         1 JQT       0.131000
     51 H8          -0.5120     0.1890    -0.7570 ha         1 JQT       0.116000
     52 H9           1.3630    -0.6020     0.2990 h1         1 JQT       0.043700
     53 H10          1.5230    -0.4640    -1.4530 h1         1 JQT       0.043700
     54 H11          6.5890    -3.0980    -0.3090 ha         1 JQT       0.112000
     55 H12          4.7390    -4.5990    -0.9470 ha         1 JQT       0.114000
     56 H13          2.4380    -3.7390    -1.0530 ha         1 JQT       0.140000
     57 H14          5.6150     0.0740     2.1980 ha         1 JQT       0.124000
     58 H15          7.5810     1.3610     2.9280 ha         1 JQT       0.127000
     59 H16          7.6540    -0.9380    -1.4370 ha         1 JQT       0.131000
     60 H17         11.4190     0.4380     1.2340 h1         1 JQT       0.064200
     61 H18         11.6880     2.1880     1.1720 h1         1 JQT       0.064200
     62 H19         10.3490     2.3530    -0.9010 h1         1 JQT       0.065200
     63 H20         11.6470     1.1660    -1.1180 h1         1 JQT       0.065200
     64 H21          3.3060     0.7790     1.0150 hc         1 JQT       0.045367
     65 H22          4.6380     1.2140    -0.0420 hc         1 JQT       0.045367
     66 H23          3.0340     0.9850    -0.7060 hc         1 JQT       0.045367
     67 H24         -5.1970    -0.7190    -1.8500 h1         1 JQT       0.061700
     68 H25         -5.3630    -2.3700    -1.2770 h1         1 JQT       0.061700
     69 H26         -3.9970    -1.4300     1.6370 h1         1 JQT       0.021700
     70 H27         -5.1180    -2.7240     1.1900 h1         1 JQT       0.021700
     71 H28         -5.5380    -0.6190     3.2300 h1         1 JQT       0.020700
     72 H29         -8.1160    -0.7420     2.1030 hc         1 JQT       0.062200
     73 H30         -6.9850     0.5910     1.8900 hc         1 JQT       0.062200
     74 H31         -7.3240    -1.8180     0.0640 h1         1 JQT       0.022700
     75 H33         -5.8870    -2.8780     3.5480 ho         1 JQT       0.422000
     76 O44         -7.7020    -0.2610    -1.8860 o          1 JQT      -0.728500
     77 C18          1.5970    -1.1660    -0.6130 c3         1 JQT       0.211900
     78 O45         -7.8120     1.3180    -0.3230 o          1 JQT      -0.728500
@<TRIPOS>BOND
     1     1     2 1   
     2     1    36 3   
     3     2     3 ar  
     4     2     7 ar  
     5     3     4 ar  
     6     3    44 1   
     7     4     5 ar  
     8     4    45 1   
     9     5     6 ar  
    10     5    46 1   
    11     6     7 ar  
    12     6     8 1   
    13     7    47 1   
    14     8    38 1   
    15     8    48 1   
    16     8    49 1   
    17     9    10 ar  
    18     9    14 ar  
    19     9    38 1   
    20    10    11 ar  
    21    10    30 1   
    22    11    12 ar  
    23    11    50 1   
    24    12    13 ar  
    25    12    43 1   
    26    13    14 ar  
    27    13    39 1   
    28    14    51 1   
    29    15    16 ar  
    30    15    20 ar  
    31    15    77 1   
    32    16    17 ar  
    33    16    29 1   
    34    17    18 ar  
    35    17    21 1   
    36    18    19 ar  
    37    18    54 1   
    38    19    20 ar  
    39    19    55 1   
    40    20    56 1   
    41    21    22 ar  
    42    21    26 ar  
    43    22    23 ar  
    44    22    57 1   
    45    23    24 ar  
    46    23    58 1   
    47    24    25 ar  
    48    24    40 1   
    49    25    26 ar  
    50    25    41 1   
    51    26    59 1   
    52    27    28 1   
    53    27    40 1   
    54    27    60 1   
    55    27    61 1   
    56    28    41 1   
    57    28    62 1   
    58    28    63 1   
    59    29    64 1   
    60    29    65 1   
    61    29    66 1   
    62    30    37 1   
    63    30    67 1   
    64    30    68 1   
    65    31    32 1   
    66    31    37 1   
    67    31    69 1   
    68    31    70 1   
    69    32    33 1   
    70    32    42 1   
    71    32    71 1   
    72    33    34 1   
    73    33    72 1   
    74    33    73 1   
    75    34    35 1   
    76    34    37 1   
    77    34    74 1   
    78    35    76 1   
    79    35    78 1   
    80    39    77 1   
    81    42    75 1   
    82    52    77 1   
    83    53    77 1   
@<TRIPOS>SUBSTRUCTURE
     1 JQT         1 TEMP              0 ****  ****    0 ROOT
