@<TRIPOS>MOLECULE
JQT
   78    83     1     0     0
SMALL
No Charge or Current Charge


@<TRIPOS>ATOM
      1 C02         -3.7520     6.8390    -1.3890 cg         1 JQT       0.348000
      2 C03         -4.0780     5.5660    -0.8070 ca         1 JQT      -0.053000
      3 C04         -5.3000     5.3900    -0.1290 ca         1 JQT      -0.078000
      4 C05         -5.6160     4.1450     0.4400 ca         1 JQT      -0.094000
      5 C06         -4.7150     3.0710     0.3350 ca         1 JQT      -0.026000
      6 C07         -3.4900     3.2360    -0.3450 ca         1 JQT      -0.115300
      7 C08         -3.1770     4.4880    -0.9120 ca         1 JQT      -0.081000
      8 C09         -2.5070     2.0760    -0.4600 c3         1 JQT       0.218900
      9 C11         -2.6490    -0.3720    -0.7750 ca         1 JQT       0.201100
     10 C12         -3.4840    -1.5080    -0.7960 ca         1 JQT      -0.119300
     11 C13         -2.9090    -2.7930    -0.8490 ca         1 JQT      -0.044000
     12 C14         -1.5150    -2.9470    -0.8790 ca         1 JQT       0.040000
     13 C15         -0.6750    -1.8150    -0.8580 ca         1 JQT       0.173100
     14 C16         -1.2450    -0.5240    -0.8070 ca         1 JQT      -0.290000
     15 C19          3.0710    -1.4610    -0.9370 ca         1 JQT      -0.087300
     16 C20          4.1520    -0.7560    -0.3360 ca         1 JQT      -0.055300
     17 C21          5.4700    -1.3080    -0.3770 cp         1 JQT      -0.042000
     18 C22          5.6790    -2.5250    -1.0650 ca         1 JQT      -0.098000
     19 C23          4.6210    -3.1980    -1.6840 ca         1 JQT      -0.120000
     20 C24          3.3250    -2.6720    -1.6170 ca         1 JQT      -0.072000
     21 C25          6.6420    -0.6540     0.2790 cp         1 JQT      -0.029000
     22 C26          6.6390    -0.3620     1.6660 ca         1 JQT      -0.098000
     23 C27          7.7510     0.2350     2.2850 ca         1 JQT      -0.110000
     24 C28          8.8920     0.5430     1.5280 ca         1 JQT       0.053100
     25 C29          8.9110     0.2680     0.1380 ca         1 JQT       0.052100
     26 C30          7.8010    -0.3380    -0.4710 ca         1 JQT      -0.099000
     27 C32         11.2370     1.1100     1.4270 c6         1 JQT       0.118600
     28 C33         10.9880     1.4860    -0.0500 c6         1 JQT       0.118600
     29 C35          3.8970     0.6070     0.3230 c3         1 JQT      -0.055800
     30 C36         -5.0030    -1.3630    -0.7440 c3         1 JQT       0.231100
     31 C38         -5.2250    -2.2420     1.5990 c5         1 JQT       0.117800
     32 C39         -6.1320    -1.9130     2.8410 c5         1 JQT       0.148300
     33 C40         -7.1090    -0.8220     2.2990 c5         1 JQT      -0.059400
     34 C41         -7.0030    -0.9910     0.7550 c5         1 JQT       0.039500
     35 C42         -7.6790     0.2250    -0.0170 c          1 JQT       0.728000
     36 N01         -3.4890     7.8790    -1.8530 n1         1 JQT      -0.504000
     37 N37         -5.5200    -1.1570     0.6310 n3         1 JQT      -0.702600
     38 O10         -3.2430     0.8730    -0.7260 os         1 JQT      -0.308100
     39 O17          0.6930    -2.0100    -0.8890 os         1 JQT      -0.338100
     40 O31          9.9870     1.1090     2.1510 os         1 JQT      -0.331100
     41 O34         10.0140     0.5880    -0.6290 os         1 JQT      -0.331100
     42 O43         -6.8390    -3.0630     3.3220 oh         1 JQT      -0.664000
     43 Cl          -0.8370    -4.5760    -0.9430 cl         1 JQT      -0.211000
     44 H1          -6.0040     6.2160    -0.0430 ha         1 JQT       0.116000
     45 H2          -6.5620     4.0080     0.9610 ha         1 JQT       0.163000
     46 H3          -4.9740     2.1100     0.7790 ha         1 JQT       0.189000
     47 H4          -2.2320     4.6220    -1.4350 ha         1 JQT       0.105000
     48 H5          -1.7920     2.2750    -1.2690 h1         1 JQT       0.031200
     49 H6          -1.9500     1.9850     0.4820 h1         1 JQT       0.031200
     50 H7          -3.5450    -3.6750    -0.8600 ha         1 JQT       0.131000
     51 H8          -0.6080     0.3520    -0.7960 ha         1 JQT       0.116000
     52 H9           1.4880    -0.3250     0.0260 h1         1 JQT       0.043700
     53 H10          1.4690    -0.2680    -1.7530 h1         1 JQT       0.043700
     54 H11          6.6780    -2.9530    -1.1090 ha         1 JQT       0.112000
     55 H12          4.8020    -4.1330    -2.2100 ha         1 JQT       0.114000
     56 H13          2.5150    -3.2130    -2.1030 ha         1 JQT       0.140000
     57 H14          5.7660    -0.6120     2.2650 ha         1 JQT       0.124000
     58 H15          7.7340     0.4470     3.3510 ha         1 JQT       0.127000
     59 H16          7.8290    -0.5520    -1.5370 ha         1 JQT       0.131000
     60 H17         11.6810     0.1070     1.4800 h1         1 JQT       0.064200
     61 H18         11.9300     1.8210     1.8980 h1         1 JQT       0.064200
     62 H19         10.6040     2.5140    -0.1070 h1         1 JQT       0.065200
     63 H20         11.9220     1.4330    -0.6280 h1         1 JQT       0.065200
     64 H21          3.5040     0.4850     1.3390 hc         1 JQT       0.045367
     65 H22          4.8050     1.2160     0.3870 hc         1 JQT       0.045367
     66 H23          3.1810     1.2070    -0.2490 hc         1 JQT       0.045367
     67 H24         -5.2950    -0.5200    -1.3850 h1         1 JQT       0.061700
     68 H25         -5.4620    -2.2590    -1.1860 h1         1 JQT       0.061700
     69 H26         -4.1610    -2.2640     1.8710 h1         1 JQT       0.021700
     70 H27         -5.4820    -3.2230     1.1740 h1         1 JQT       0.021700
     71 H28         -5.5260    -1.4900     3.6550 h1         1 JQT       0.020700
     72 H29         -8.1340    -0.9450     2.6640 hc         1 JQT       0.062200
     73 H30         -6.7700     0.1700     2.6190 hc         1 JQT       0.062200
     74 H31         -7.5200    -1.9080     0.4370 h1         1 JQT       0.022700
     75 H33         -6.1600    -3.7050     3.6230 ho         1 JQT       0.422000
     76 O44         -8.1090     0.0280    -1.1480 o          1 JQT      -0.728500
     77 C18          1.6330    -0.9200    -0.8850 c3         1 JQT       0.211900
     78 O45         -7.8120     1.3140     0.5290 o          1 JQT      -0.728500
@<TRIPOS>BOND
     1     1     2 1   
     2     1    36 3   
     3     2     3 ar  
     4     2     7 ar  
     5     3     4 ar  
     6     3    44 1   
     7     4     5 ar  
     8     4    45 1   
     9     5     6 ar  
    10     5    46 1   
    11     6     7 ar  
    12     6     8 1   
    13     7    47 1   
    14     8    38 1   
    15     8    48 1   
    16     8    49 1   
    17     9    10 ar  
    18     9    14 ar  
    19     9    38 1   
    20    10    11 ar  
    21    10    30 1   
    22    11    12 ar  
    23    11    50 1   
    24    12    13 ar  
    25    12    43 1   
    26    13    14 ar  
    27    13    39 1   
    28    14    51 1   
    29    15    16 ar  
    30    15    20 ar  
    31    15    77 1   
    32    16    17 ar  
    33    16    29 1   
    34    17    18 ar  
    35    17    21 1   
    36    18    19 ar  
    37    18    54 1   
    38    19    20 ar  
    39    19    55 1   
    40    20    56 1   
    41    21    22 ar  
    42    21    26 ar  
    43    22    23 ar  
    44    22    57 1   
    45    23    24 ar  
    46    23    58 1   
    47    24    25 ar  
    48    24    40 1   
    49    25    26 ar  
    50    25    41 1   
    51    26    59 1   
    52    27    28 1   
    53    27    40 1   
    54    27    60 1   
    55    27    61 1   
    56    28    41 1   
    57    28    62 1   
    58    28    63 1   
    59    29    64 1   
    60    29    65 1   
    61    29    66 1   
    62    30    37 1   
    63    30    67 1   
    64    30    68 1   
    65    31    32 1   
    66    31    37 1   
    67    31    69 1   
    68    31    70 1   
    69    32    33 1   
    70    32    42 1   
    71    32    71 1   
    72    33    34 1   
    73    33    72 1   
    74    33    73 1   
    75    34    35 1   
    76    34    37 1   
    77    34    74 1   
    78    35    76 1   
    79    35    78 1   
    80    39    77 1   
    81    42    75 1   
    82    52    77 1   
    83    53    77 1   
@<TRIPOS>SUBSTRUCTURE
     1 JQT         1 TEMP              0 ****  ****    0 ROOT
