@<TRIPOS>MOLECULE
JQU
   38    41     1     0     0
SMALL
No Charge or Current Charge


@<TRIPOS>ATOM
      1 C6          95.8320    -7.1900    12.9470 cc         1 JQU      -0.094400
      2 C7          93.9600   -10.3930    12.7940 cd         1 JQU       0.315300
      3 C8          95.7130    -8.4590    12.3860 cd         1 JQU      -0.131000
      4 C10         97.0740    -5.0120    12.9230 c          1 JQU       0.612700
      5 N12         92.2850    -8.2130    16.4010 nb         1 JQU      -0.717000
      6 C15         94.2700   -11.4650    11.7900 c3         1 JQU      -0.122400
      7 C17         91.3030    -7.8910    17.2720 ca         1 JQU       0.371900
      8 C20         89.6000    -8.8780    15.8770 ca         1 JQU      -0.057000
      9 C21         89.9550    -8.2020    17.0500 ca         1 JQU      -0.186000
     10 C22         99.6070    -2.2780    12.0260 ca         1 JQU      -0.119000
     11 C24        100.3780    -2.8970    11.0310 ca         1 JQU      -0.084000
     12 C1          94.0650    -8.5220    13.9790 cc         1 JQU      -0.221000
     13 N2          92.9340    -9.2480    14.2850 na         1 JQU       0.131300
     14 C3          94.6420    -9.1670    12.9850 cd         1 JQU      -0.161000
     15 N4          92.8900   -10.4730    13.5970 nc         1 JQU      -0.507800
     16 S5          94.5500    -6.8650    14.1820 ss         1 JQU       0.371000
     17 N9          96.8200    -6.3090    12.5050 ns         1 JQU      -0.373100
     18 C11         91.9690    -8.8750    15.2500 ca         1 JQU       0.472500
     19 O13         96.4030    -4.4660    13.7900 o          1 JQU      -0.584100
     20 C14         98.2310    -4.2980    12.2470 ca         1 JQU      -0.148600
     21 C16         90.6220    -9.2130    14.9740 ca         1 JQU      -0.153000
     22 C18         98.5430    -2.9710    12.6290 ca         1 JQU      -0.069000
     23 C19         99.0200    -4.9110    11.2390 ca         1 JQU      -0.069000
     24 C23        100.0830    -4.2120    10.6390 ca         1 JQU      -0.119000
     25 H1          96.3280    -8.8410    11.5760 ha         1 JQU       0.131000
     26 H2          93.6400   -11.3570    10.9000 hc         1 JQU       0.050367
     27 H3          95.3170   -11.4120    11.4710 hc         1 JQU       0.050367
     28 H4          94.0980   -12.4630    12.2100 hc         1 JQU       0.050367
     29 H5          91.6090    -7.3640    18.1750 h4         1 JQU       0.025100
     30 H6          88.5630    -9.1350    15.6690 ha         1 JQU       0.123000
     31 H7          89.2030    -7.9200    17.7820 ha         1 JQU       0.128000
     32 H9         101.2010    -2.3600    10.5650 ha         1 JQU       0.117000
     33 H10         97.4490    -6.6390    11.7860 hn         1 JQU       0.325500
     34 H11         90.3700    -9.7320    14.0530 ha         1 JQU       0.152000
     35 H12         97.9600    -2.4700    13.3990 ha         1 JQU       0.124500
     36 H13         98.8270    -5.9270    10.9040 ha         1 JQU       0.124500
     37 H14        100.6800    -4.6930     9.8670 ha         1 JQU       0.119000
     38 H8          99.8330    -1.2590    12.3320 ha         1 JQU       0.119000
@<TRIPOS>BOND
     1     1     3 2   
     2     1    16 1   
     3     1    17 1   
     4     2     6 1   
     5     2    14 1   
     6     2    15 2   
     7     3    14 1   
     8     3    25 1   
     9     4    17 1   
    10     4    19 2   
    11     4    20 1   
    12     5     7 ar  
    13     5    18 ar  
    14     6    26 1   
    15     6    27 1   
    16     6    28 1   
    17     7     9 ar  
    18     7    29 1   
    19     8     9 ar  
    20     8    21 ar  
    21     8    30 1   
    22     9    31 1   
    23    10    11 ar  
    24    10    22 ar  
    25    10    38 1   
    26    11    24 ar  
    27    11    32 1   
    28    12    13 1   
    29    12    14 2   
    30    12    16 1   
    31    13    15 1   
    32    13    18 1   
    33    17    33 1   
    34    18    21 ar  
    35    20    22 ar  
    36    20    23 ar  
    37    21    34 1   
    38    22    35 1   
    39    23    24 ar  
    40    23    36 1   
    41    24    37 1   
@<TRIPOS>SUBSTRUCTURE
     1 JQU         1 TEMP              0 ****  ****    0 ROOT
