@<TRIPOS>MOLECULE
JQU
   38    41     1     0     0
SMALL
bcc


@<TRIPOS>ATOM
      1 C6          95.7500    -7.2610    12.5250 cc         1 JQU       0.050500
      2 C7          93.6710   -10.3370    12.4480 cd         1 JQU       0.380600
      3 C8          95.5450    -8.4610    11.9180 cd         1 JQU      -0.149000
      4 C10         96.9880    -5.1950    12.8180 c          1 JQU       0.679700
      5 N12         92.2610    -7.5980    15.5890 nb         1 JQU      -0.717000
      6 C15         93.8430   -11.4930    11.5300 c3         1 JQU      -0.122400
      7 C17         91.4970    -7.1760    16.5900 ca         1 JQU       0.437200
      8 C20         90.1770    -9.1530    16.5290 ca         1 JQU      -0.075000
      9 C21         90.4420    -7.9120    17.0990 ca         1 JQU      -0.269300
     10 C22         99.2930    -2.2950    12.2130 ca         1 JQU      -0.137000
     11 C24        100.4020    -2.9090    11.6460 ca         1 JQU      -0.102000
     12 C1          93.8660    -8.4150    13.5210 cc         1 JQU      -0.025400
     13 N2          92.8410    -9.1420    14.0200 na         1 JQU       0.080600
     14 C3          94.4370    -9.1410    12.5030 cd         1 JQU      -0.226300
     15 N4          92.7250   -10.3130    13.3610 nc         1 JQU      -0.507800
     16 S5          94.6100    -6.8990    13.8250 ss         1 JQU       0.081200
     17 N9          96.7620    -6.3750    12.1970 ns         1 JQU      -0.440100
     18 C11         91.9940    -8.7790    15.0600 ca         1 JQU       0.537800
     19 O13         96.2370    -4.7840    13.6900 o          1 JQU      -0.584100
     20 C14         98.1870    -4.4310    12.3790 ca         1 JQU      -0.148600
     21 C16         90.9620    -9.6100    15.4860 ca         1 JQU      -0.236300
     22 C18         98.1940    -3.0520    12.5860 ca         1 JQU      -0.087000
     23 C19         99.3070    -5.0430    11.8160 ca         1 JQU      -0.087000
     24 C23        100.4090    -4.2840    11.4530 ca         1 JQU      -0.137000
     25 H1          96.1560    -8.8320    11.1070 ha         1 JQU       0.149000
     26 H2          93.1150   -12.2730    11.7420 hc         1 JQU       0.050367
     27 H3          93.7240   -11.1860    10.4900 hc         1 JQU       0.050367
     28 H4          94.8420   -11.9210    11.6270 hc         1 JQU       0.050367
     29 H5          91.7420    -6.2040    17.0020 h4         1 JQU       0.025100
     30 H6          89.3620    -9.7630    16.8950 ha         1 JQU       0.141000
     31 H7          89.8470    -7.5270    17.9150 ha         1 JQU       0.146000
     32 H9         101.2630    -2.3180    11.3600 ha         1 JQU       0.135000
     33 H10         97.3450    -6.6520    11.4210 hn         1 JQU       0.325500
     34 H11         90.7830   -10.5670    15.0200 ha         1 JQU       0.170000
     35 H12         97.3340    -2.5700    13.0310 ha         1 JQU       0.142500
     36 H13         99.3520    -6.1170    11.6810 ha         1 JQU       0.142500
     37 H14        101.2760    -4.7690    11.0270 ha         1 JQU       0.137000
     38 H8          99.2840    -1.2240    12.3680 ha         1 JQU       0.137000
@<TRIPOS>BOND
     1     1     3 2   
     2     1    16 1   
     3     1    17 1   
     4     2     6 1   
     5     2    14 1   
     6     2    15 2   
     7     3    14 1   
     8     3    25 1   
     9     4    17 1   
    10     4    19 2   
    11     4    20 1   
    12     5     7 ar  
    13     5    18 ar  
    14     6    26 1   
    15     6    27 1   
    16     6    28 1   
    17     7     9 ar  
    18     7    29 1   
    19     8     9 ar  
    20     8    21 ar  
    21     8    30 1   
    22     9    31 1   
    23    10    11 ar  
    24    10    22 ar  
    25    10    38 1   
    26    11    24 ar  
    27    11    32 1   
    28    12    13 1   
    29    12    14 2   
    30    12    16 1   
    31    13    15 1   
    32    13    18 1   
    33    17    33 1   
    34    18    21 ar  
    35    20    22 ar  
    36    20    23 ar  
    37    21    34 1   
    38    22    35 1   
    39    23    24 ar  
    40    23    36 1   
    41    24    37 1   
@<TRIPOS>SUBSTRUCTURE
     1 JQU         1 TEMP              0 ****  ****    0 ROOT
