@<TRIPOS>MOLECULE
JQW
   26    28     1     0     0
SMALL
bcc


@<TRIPOS>ATOM
      1 C4          -2.5320    -0.5700    -0.0160 ca         1 JQW       0.600100
      2 C5          -3.5480    -1.5320    -0.0370 ca         1 JQW      -0.436600
      3 C6          -4.8420    -1.0560    -0.0470 ca         1 JQW       0.480200
      4 N1          -5.1500     0.2340    -0.0400 nb         1 JQW      -0.774000
      5 N3          -2.8230     0.7260    -0.0090 nb         1 JQW      -0.787000
      6 CAD          2.4480    -0.3860     0.0060 ca         1 JQW       0.004400
      7 CAC          2.6000     0.9870    -0.0190 ca         1 JQW       0.049400
      8 CL2          4.1810     1.6780    -0.0260 cl         1 JQW      -0.086400
      9 CAB          1.4850     1.8350    -0.0390 ca         1 JQW      -0.150000
     10 CAA          0.2030     1.3280    -0.0340 ca         1 JQW      -0.049000
     11 CAF          0.0150    -0.0580    -0.0090 ca         1 JQW      -0.050800
     12 CAE          1.1520    -0.8910     0.0100 ca         1 JQW      -0.055200
     13 NAG          0.7270    -2.1860     0.0300 na         1 JQW      -0.150400
     14 CAH         -0.6250    -2.2150     0.0220 cc         1 JQW      -0.068100
     15 CAI         -1.1260    -0.9340    -0.0020 cd         1 JQW      -0.226000
     16 C2          -4.1120     1.0750    -0.0220 ca         1 JQW       0.904900
     17 NAP         -4.3850     2.3980    -0.0510 nv         1 JQW      -0.945500
     18 H1          -3.3500    -2.5940    -0.0430 ha         1 JQW       0.145000
     19 H2          -5.6760    -1.7490    -0.0620 h4         1 JQW       0.018100
     20 H3           1.6430     2.9050    -0.0590 ha         1 JQW       0.149000
     21 H4          -0.6440     1.9960    -0.0490 ha         1 JQW       0.163000
     22 H5           1.3190    -3.0020     0.0470 hn         1 JQW       0.313700
     23 H6          -1.1440    -3.1600     0.0350 h4         1 JQW       0.169000
     24 H7          -5.3230     2.6940     0.1560 hn         1 JQW       0.434800
     25 H8          -3.6490     3.0390     0.1880 hn         1 JQW       0.434800
     26 CL1          3.7830    -1.4670     0.0310 cl         1 JQW      -0.086400
@<TRIPOS>BOND
     1     1     2 ar  
     2     1     5 ar  
     3     1    15 1   
     4     2     3 ar  
     5     2    18 1   
     6     3     4 ar  
     7     3    19 1   
     8     4    16 ar  
     9     5    16 ar  
    10     6     7 ar  
    11     6    12 ar  
    12     6    26 1   
    13     7     8 1   
    14     7     9 ar  
    15     9    10 ar  
    16     9    20 1   
    17    10    11 ar  
    18    10    21 1   
    19    11    12 ar  
    20    11    15 1   
    21    12    13 1   
    22    13    14 1   
    23    13    22 1   
    24    14    15 2   
    25    14    23 1   
    26    16    17 1   
    27    17    24 1   
    28    17    25 1   
@<TRIPOS>SUBSTRUCTURE
     1 JQW         1 TEMP              0 ****  ****    0 ROOT
