@<TRIPOS>MOLECULE
JQW
   26    28     1     0     0
SMALL
No Charge or Current Charge


@<TRIPOS>ATOM
      1 C4          -2.5250    -0.5570    -0.0220 ca         1 JQW       0.271800
      2 C5          -3.5590    -1.5180    -0.0260 ca         1 JQW      -0.288000
      3 C6          -4.8870    -1.0640    -0.0380 ca         1 JQW       0.151900
      4 N1          -5.1790     0.2490    -0.0440 nb         1 JQW      -0.248000
      5 N3          -2.8290     0.7580    -0.0280 nb         1 JQW      -0.261000
      6 CAD          2.4660    -0.3920     0.0080 ca         1 JQW       0.096000
      7 CAC          2.6370     1.0120    -0.0130 ca         1 JQW       0.141000
      8 Cl2          4.2490     1.7280    -0.0120 cl         1 JQW      -0.178000
      9 CAB          1.5100     1.8650    -0.0350 ca         1 JQW      -0.132000
     10 CAA          0.2030     1.3300    -0.0360 ca         1 JQW      -0.031000
     11 CAF          0.0590    -0.0700    -0.0140 ca         1 JQW      -0.050800
     12 CAE          1.1550    -0.8940     0.0070 ca         1 JQW      -0.055200
     13 NAG          0.7430    -2.2160     0.0230 na         1 JQW      -0.200700
     14 CAH         -0.6620    -2.2890     0.0140 cc         1 JQW      -0.118100
     15 CAI         -1.0970    -0.9650    -0.0090 cd         1 JQW      -0.226000
     16 C2          -4.1290     1.0810    -0.0400 ca         1 JQW       0.378900
     17 NAP         -4.4170     2.4060    -0.0440 nv         1 JQW      -1.055900
     18 H1          -3.3520    -2.5820    -0.0210 ha         1 JQW       0.127000
     19 H2          -5.7270    -1.7580    -0.0410 h4         1 JQW       0.018100
     20 H3           1.6510     2.9420    -0.0510 ha         1 JQW       0.131000
     21 H4          -0.6490     2.0020    -0.0540 ha         1 JQW       0.145000
     22 H5           1.3710    -3.0150     0.0400 hn         1 JQW       0.364000
     23 H6          -1.2010    -3.2320     0.0240 h4         1 JQW       0.219000
     24 H7          -5.3700     2.6970     0.1600 hn         1 JQW       0.490000
     25 H8          -3.6780     3.0690     0.1780 hn         1 JQW       0.490000
     26 Cl1          3.8450    -1.4950     0.0350 cl         1 JQW      -0.178000
@<TRIPOS>BOND
     1     1     2 ar  
     2     1     5 ar  
     3     1    15 1   
     4     2     3 ar  
     5     2    18 1   
     6     3     4 ar  
     7     3    19 1   
     8     4    16 ar  
     9     5    16 ar  
    10     6     7 ar  
    11     6    12 ar  
    12     6    26 1   
    13     7     8 1   
    14     7     9 ar  
    15     9    10 ar  
    16     9    20 1   
    17    10    11 ar  
    18    10    21 1   
    19    11    12 ar  
    20    11    15 1   
    21    12    13 1   
    22    13    14 1   
    23    13    22 1   
    24    14    15 2   
    25    14    23 1   
    26    16    17 1   
    27    17    24 1   
    28    17    25 1   
@<TRIPOS>SUBSTRUCTURE
     1 JQW         1 TEMP              0 ****  ****    0 ROOT
