@<TRIPOS>MOLECULE
JQX
   52    55     1     0     0
SMALL
No Charge or Current Charge


@<TRIPOS>ATOM
      1 C10         -5.3590    19.6250    -4.0760 c6         1 JQX       0.157500
      2 C11         -6.7830    19.0190    -4.2550 c6         1 JQX       0.095000
      3 C13         -6.7090    19.5370    -6.6700 c6         1 JQX       0.104000
      4 C15         -3.1990    20.0890    -5.1930 c6         1 JQX       0.173800
      5 C16         -2.4020    19.4100    -4.0450 c6         1 JQX      -0.019400
      6 C17         -3.1950    19.5090    -2.7170 c6         1 JQX      -0.068400
      7 C18         -4.6220    18.9380    -2.8950 c6         1 JQX      -0.073400
      8 C19         -0.9840    19.9870    -3.9090 ca         1 JQX      -0.074300
      9 C21          0.1370    19.1450    -4.0560 ca         1 JQX      -0.098500
     10 C22          1.4380    19.6640    -3.9330 ca         1 JQX      -0.102500
     11 C23          1.6260    21.0280    -3.6600 ca         1 JQX       0.119000
     12 C24          0.5170    21.8750    -3.5100 ca         1 JQX      -0.102500
     13 C25         -0.7850    21.3570    -3.6340 ca         1 JQX      -0.098500
     14 C1         -10.9020    21.6680    -8.7050 ca         1 JQX      -0.192000
     15 C2         -10.4650    22.6780    -7.8200 ca         1 JQX       0.165100
     16 C3          -9.6890    22.3340    -6.6910 ca         1 JQX      -0.039900
     17 C4          -9.3410    20.9810    -6.4440 ca         1 JQX      -0.078600
     18 C5          -9.7920    19.9880    -7.3430 ca         1 JQX      -0.126000
     19 C6         -10.5640    20.3290    -8.4640 ca         1 JQX      -0.061000
     20 O8          -8.8410    20.9540    -4.1040 o          1 JQX      -0.580100
     21 N9          -4.5620    19.5060    -5.3400 n3         1 JQX      -0.718600
     22 N12         -7.5040    19.6210    -5.4110 n          1 JQX      -0.400800
     23 C14         -5.2850    20.1290    -6.4860 c6         1 JQX       0.145800
     24 Cl26         3.2540    21.6770    -3.5060 cl         1 JQX      -0.205000
     25 Br28        -9.0550    23.7470    -5.5430 br         1 JQX      -0.068100
     26 C29        -11.5490    24.4600    -9.1510 c3         1 JQX       0.147900
     27 H1          -5.4800    20.6890    -3.8250 h1         1 JQX       0.036700
     28 H2          -7.3570    19.1480    -3.3260 h1         1 JQX       0.066200
     29 H3          -6.6930    17.9370    -4.4250 h1         1 JQX       0.066200
     30 H4          -7.2000    20.0700    -7.4940 h1         1 JQX       0.058200
     31 H5          -6.6260    18.4820    -6.9680 h1         1 JQX       0.058200
     32 H6          -2.6350    19.9680    -6.1290 h1         1 JQX       0.035700
     33 H7          -3.2710    21.1690    -4.9970 h1         1 JQX       0.035700
     34 H8          -2.3190    18.3450    -4.3020 hc         1 JQX       0.066700
     35 H9          -2.6700    18.9620    -1.9230 hc         1 JQX       0.046200
     36 H10         -3.2600    20.5560    -2.3890 hc         1 JQX       0.046200
     37 H11         -5.1920    19.0750    -1.9670 hc         1 JQX       0.050700
     38 H12         -4.5640    17.8550    -3.0720 hc         1 JQX       0.050700
     39 H13          0.0040    18.0860    -4.2670 ha         1 JQX       0.117000
     40 H14          2.2990    19.0100    -4.0480 ha         1 JQX       0.129000
     41 H15          0.6650    22.9300    -3.2980 ha         1 JQX       0.129000
     42 H16         -1.6350    22.0240    -3.5130 ha         1 JQX       0.117000
     43 H17        -11.5000    21.9020    -9.5810 ha         1 JQX       0.122000
     44 H18         -9.5540    18.9410    -7.1640 ha         1 JQX       0.127000
     45 H19        -10.9040    19.5510    -9.1450 ha         1 JQX       0.119000
     46 H21         -4.7200    19.9830    -7.4190 h1         1 JQX       0.043700
     47 H22         -5.3770    21.2150    -6.3310 h1         1 JQX       0.043700
     48 H23        -11.6670    25.5510    -9.1190 h1         1 JQX       0.045367
     49 H24        -11.0570    24.2000   -10.0970 h1         1 JQX       0.045367
     50 H25        -12.5490    24.0100    -9.1360 h1         1 JQX       0.045367
     51 C7          -8.5340    20.5730    -5.2280 c          1 JQX       0.621700
     52 O27        -10.7690    24.0120    -8.0290 os         1 JQX      -0.323100
@<TRIPOS>BOND
     1     1     2 1   
     2     1     7 1   
     3     1    21 1   
     4     1    27 1   
     5     2    22 1   
     6     2    28 1   
     7     2    29 1   
     8     3    22 1   
     9     3    23 1   
    10     3    30 1   
    11     3    31 1   
    12     4     5 1   
    13     4    21 1   
    14     4    32 1   
    15     4    33 1   
    16     5     6 1   
    17     5     8 1   
    18     5    34 1   
    19     6     7 1   
    20     6    35 1   
    21     6    36 1   
    22     7    37 1   
    23     7    38 1   
    24     8     9 ar  
    25     8    13 ar  
    26     9    10 ar  
    27     9    39 1   
    28    10    11 ar  
    29    10    40 1   
    30    11    12 ar  
    31    11    24 1   
    32    12    13 ar  
    33    12    41 1   
    34    13    42 1   
    35    14    15 ar  
    36    14    19 ar  
    37    14    43 1   
    38    15    16 ar  
    39    15    52 1   
    40    16    17 ar  
    41    16    25 1   
    42    17    18 ar  
    43    17    51 1   
    44    18    19 ar  
    45    18    44 1   
    46    19    45 1   
    47    20    51 2   
    48    21    23 1   
    49    22    51 1   
    50    23    46 1   
    51    23    47 1   
    52    26    48 1   
    53    26    49 1   
    54    26    50 1   
    55    26    52 1   
@<TRIPOS>SUBSTRUCTURE
     1 JQX         1 TEMP              0 ****  ****    0 ROOT
