@<TRIPOS>MOLECULE
JQX
   52    55     1     0     0
SMALL
abcg2


@<TRIPOS>ATOM
      1 C10         -5.4210    19.6940    -4.0310 c6         1 JQX       0.157500
      2 C11         -6.7770    19.0290    -4.2250 c6         1 JQX       0.095000
      3 C13         -6.7430    19.6090    -6.5730 c6         1 JQX       0.104000
      4 C15         -3.3480    20.2320    -5.1400 c6         1 JQX       0.173800
      5 C16         -2.5180    19.5160    -4.0750 c6         1 JQX      -0.019400
      6 C17         -3.2620    19.5570    -2.7410 c6         1 JQX      -0.068400
      7 C18         -4.6620    18.9890    -2.9150 c6         1 JQX      -0.073400
      8 C19         -1.1290    20.0920    -3.9920 ca         1 JQX      -0.074300
      9 C21         -0.0220    19.3190    -4.3320 ca         1 JQX      -0.098500
     10 C22          1.2670    19.8310    -4.2790 ca         1 JQX      -0.102500
     11 C23          1.4520    21.1440    -3.8790 ca         1 JQX       0.119000
     12 C24          0.3710    21.9400    -3.5300 ca         1 JQX      -0.102500
     13 C25         -0.9080    21.4080    -3.5880 ca         1 JQX      -0.098500
     14 C1         -10.8200    21.6360    -8.6030 ca         1 JQX      -0.192000
     15 C2         -10.0830    22.5260    -7.8250 ca         1 JQX       0.165100
     16 C3          -9.3780    22.0240    -6.7240 ca         1 JQX      -0.039900
     17 C4          -9.3990    20.6750    -6.4100 ca         1 JQX      -0.078600
     18 C5         -10.1410    19.7990    -7.1960 ca         1 JQX      -0.126000
     19 C6         -10.8430    20.2850    -8.2850 ca         1 JQX      -0.061000
     20 O8          -9.3230    20.1790    -4.1110 o          1 JQX      -0.580100
     21 N9          -4.6660    19.6420    -5.2750 n3         1 JQX      -0.718600
     22 N12         -7.4990    19.6180    -5.3360 n          1 JQX      -0.400800
     23 C14         -5.3950    20.2720    -6.3590 c6         1 JQX       0.145800
     24 CL26         3.0560    21.8000    -3.8140 cl         1 JQX      -0.205000
     25 BR28        -8.3630    23.2200    -5.6800 br         1 JQX      -0.068100
     26 C29        -10.6910    24.3880    -9.1610 c3         1 JQX       0.147900
     27 H1          -5.5940    20.7460    -3.7310 h1         1 JQX       0.036700
     28 H2          -7.3690    19.1200    -3.3170 h1         1 JQX       0.066200
     29 H3          -6.6300    17.9620    -4.4280 h1         1 JQX       0.066200
     30 H4          -7.2850    20.1280    -7.3590 h1         1 JQX       0.058200
     31 H5          -6.6010    18.5730    -6.8970 h1         1 JQX       0.058200
     32 H6          -2.8390    20.1640    -6.1060 h1         1 JQX       0.035700
     33 H7          -3.4140    21.3060    -4.8910 h1         1 JQX       0.035700
     34 H8          -2.4300    18.4680    -4.3800 hc         1 JQX       0.066700
     35 H9          -2.7130    18.9950    -1.9830 hc         1 JQX       0.046200
     36 H10         -3.3280    20.5910    -2.3850 hc         1 JQX       0.046200
     37 H11         -5.2290    19.0790    -1.9850 hc         1 JQX       0.050700
     38 H12         -4.5970    17.9210    -3.1480 hc         1 JQX       0.050700
     39 H13         -0.1630    18.2920    -4.6460 ha         1 JQX       0.117000
     40 H14          2.1110    19.2120    -4.5480 ha         1 JQX       0.129000
     41 H15          0.5220    22.9650    -3.2170 ha         1 JQX       0.129000
     42 H16         -1.7410    22.0420    -3.3110 ha         1 JQX       0.117000
     43 H17        -11.3790    21.9840    -9.4610 ha         1 JQX       0.122000
     44 H18        -10.1600    18.7440    -6.9570 ha         1 JQX       0.127000
     45 H19        -11.4190    19.6080    -8.9020 ha         1 JQX       0.119000
     46 H21         -4.8110    20.1820    -7.2780 h1         1 JQX       0.043700
     47 H22         -5.5500    21.3490    -6.1760 h1         1 JQX       0.043700
     48 H23        -10.4850    25.4550    -9.1500 h1         1 JQX       0.045367
     49 H24        -10.3400    23.9690   -10.1070 h1         1 JQX       0.045367
     50 H25        -11.7700    24.2350    -9.0810 h1         1 JQX       0.045367
     51 C7          -8.7230    20.1450    -5.1750 c          1 JQX       0.621700
     52 O27         -9.9980    23.8400    -8.0540 os         1 JQX      -0.323100
@<TRIPOS>BOND
     1     1     2 1   
     2     1     7 1   
     3     1    21 1   
     4     1    27 1   
     5     2    22 1   
     6     2    28 1   
     7     2    29 1   
     8     3    22 1   
     9     3    23 1   
    10     3    30 1   
    11     3    31 1   
    12     4     5 1   
    13     4    21 1   
    14     4    32 1   
    15     4    33 1   
    16     5     6 1   
    17     5     8 1   
    18     5    34 1   
    19     6     7 1   
    20     6    35 1   
    21     6    36 1   
    22     7    37 1   
    23     7    38 1   
    24     8     9 ar  
    25     8    13 ar  
    26     9    10 ar  
    27     9    39 1   
    28    10    11 ar  
    29    10    40 1   
    30    11    12 ar  
    31    11    24 1   
    32    12    13 ar  
    33    12    41 1   
    34    13    42 1   
    35    14    15 ar  
    36    14    19 ar  
    37    14    43 1   
    38    15    16 ar  
    39    15    52 1   
    40    16    17 ar  
    41    16    25 1   
    42    17    18 ar  
    43    17    51 1   
    44    18    19 ar  
    45    18    44 1   
    46    19    45 1   
    47    20    51 2   
    48    21    23 1   
    49    22    51 1   
    50    23    46 1   
    51    23    47 1   
    52    26    48 1   
    53    26    49 1   
    54    26    50 1   
    55    26    52 1   
@<TRIPOS>SUBSTRUCTURE
     1 JQX         1 TEMP              0 ****  ****    0 ROOT
