@<TRIPOS>MOLECULE
JQY
   60    64     1     0     0
SMALL
abcg2


@<TRIPOS>ATOM
      1 C10         21.3280   -21.4890    35.3510 ca         1 JQY       0.245500
      2 C15         22.7480   -22.5040    30.2740 ca         1 JQY      -0.154000
      3 C17         21.5230   -20.8220    29.0300 ca         1 JQY      -0.094300
      4 C21         20.7150   -21.6030    31.1680 ca         1 JQY      -0.109000
      5 C24         21.6300   -22.4390    36.3230 ca         1 JQY      -0.254000
      6 C26         22.3020   -18.8600    34.0180 c6         1 JQY       0.080300
      7 C28         24.3550   -17.8360    33.0850 c6         1 JQY       0.159800
      8 C02         17.7010   -21.9980    39.4140 ca         1 JQY       0.171000
      9 C03         18.3070   -20.8420    39.8650 ca         1 JQY      -0.158500
     10 C04         19.0770   -20.1060    38.9760 ca         1 JQY      -0.064500
     11 C05         17.8290   -22.4310    38.1080 ca         1 JQY      -0.158500
     12 C06         18.5980   -21.6810    37.2320 ca         1 JQY      -0.064500
     13 C07         19.2450   -20.5190    37.6540 ca         1 JQY      -0.125500
     14 C08         20.0610   -19.7190    36.7360 cc         1 JQY       0.323500
     15 C09         20.9110   -20.1400    35.7320 cd         1 JQY      -0.266500
     16 N11         21.4200   -21.7680    34.0550 nb         1 JQY      -0.247000
     17 C12         21.8250   -22.9890    33.7190 ca         1 JQY       0.384900
     18 N13         21.9740   -23.2990    32.4050 nu         1 JQY      -0.937900
     19 C14         21.8110   -22.4530    31.2990 ca         1 JQY       0.301000
     20 C16         22.5930   -21.7000    29.1550 ca         1 JQY      -0.090000
     21 C19         20.5690   -20.7840    30.0570 ca         1 JQY      -0.062300
     22 N22         22.1180   -23.9770    34.5720 nb         1 JQY      -0.240000
     23 C23         22.0150   -23.6840    35.8580 ca         1 JQY       0.148900
     24 N25         21.3760   -18.9870    35.1410 na         1 JQY      -0.130500
     25 C27         23.4260   -17.8680    34.2930 c6         1 JQY      -0.087400
     26 N29         23.6100   -17.4720    31.8930 n7         1 JQY      -0.868400
     27 C30         22.5620   -18.4310    31.5870 c6         1 JQY       0.159800
     28 C31         21.5670   -18.4890    32.7360 c6         1 JQY      -0.087400
     29 C32         20.8140   -17.9600    35.8040 cd         1 JQY       0.405400
     30 N33         20.0200   -18.3590    36.7650 nc         1 JQY      -0.673000
     31 H151        23.6040   -23.1640    30.3520 ha         1 JQY       0.115000
     32 H211        19.9680   -21.5660    31.9480 ha         1 JQY       0.134000
     33 H241        21.5820   -22.2200    37.3790 ha         1 JQY       0.149000
     34 H261        22.7480   -19.8430    33.8770 h1         1 JQY       0.083700
     35 H281        24.8500   -18.8170    32.9960 h1         1 JQY       0.037200
     36 H282        25.1420   -17.0990    33.2490 h1         1 JQY       0.037200
     37 H031        18.1860   -20.5220    40.8910 ha         1 JQY       0.131500
     38 H041        19.5610   -19.2020    39.3200 ha         1 JQY       0.126000
     39 H051        17.3290   -23.3310    37.7750 ha         1 JQY       0.131500
     40 H061        18.6750   -22.0030    36.2020 ha         1 JQY       0.126000
     41 H131        22.4410   -24.1770    32.2370 hn         1 JQY       0.513000
     42 H161        23.3380   -21.7470    28.3690 ha         1 JQY       0.113000
     43 H231        22.2650   -24.4760    36.5550 h4         1 JQY       0.027100
     44 H272        23.9830   -18.1620    35.1850 hc         1 JQY       0.060450
     45 H271        23.0290   -16.8640    34.4640 hc         1 JQY       0.060450
     46 H1          24.2440   -17.4010    31.1080 hn         1 JQY       0.415000
     47 H301        22.0570   -18.1180    30.6710 h1         1 JQY       0.037200
     48 H302        22.9480   -19.4480    31.4030 h1         1 JQY       0.037200
     49 H312        21.0790   -17.5170    32.8520 hc         1 JQY       0.060450
     50 H311        20.7990   -19.2350    32.5300 hc         1 JQY       0.060450
     51 H321        21.0130   -16.9300    35.5510 h5         1 JQY       0.060100
     52 C18         21.4010   -19.9190    27.8390 c3         1 JQY      -0.044800
     53 C20         19.4050   -19.8420    29.9740 c3         1 JQY      -0.050800
     54 F01         16.9570   -22.7210    40.2670 f          1 JQY      -0.181000
     55 H203        18.8070   -20.0070    29.0760 hc         1 JQY       0.044700
     56 H202        18.7480   -19.9450    30.8360 hc         1 JQY       0.044700
     57 H201        19.7430   -18.8030    29.9370 hc         1 JQY       0.044700
     58 H183        20.4800   -20.1000    27.2800 hc         1 JQY       0.041700
     59 H182        21.3830   -18.8680    28.1380 hc         1 JQY       0.041700
     60 H181        22.2360   -20.0520    27.1520 hc         1 JQY       0.041700
@<TRIPOS>BOND
     1     1     5 ar  
     2     1    15 1   
     3     1    16 ar  
     4     2    19 ar  
     5     2    20 ar  
     6     2    31 1   
     7     3    20 ar  
     8     3    21 ar  
     9     3    52 1   
    10     4    19 ar  
    11     4    21 ar  
    12     4    32 1   
    13     5    23 ar  
    14     5    33 1   
    15     6    24 1   
    16     6    25 1   
    17     6    28 1   
    18     6    34 1   
    19     7    25 1   
    20     7    26 1   
    21     7    35 1   
    22     7    36 1   
    23     8     9 ar  
    24     8    11 ar  
    25     8    54 1   
    26     9    10 ar  
    27     9    37 1   
    28    10    13 ar  
    29    10    38 1   
    30    11    12 ar  
    31    11    39 1   
    32    12    13 ar  
    33    12    40 1   
    34    13    14 1   
    35    14    15 2   
    36    14    30 1   
    37    15    24 1   
    38    16    17 ar  
    39    17    18 1   
    40    17    22 ar  
    41    18    19 1   
    42    18    41 1   
    43    20    42 1   
    44    21    53 1   
    45    22    23 ar  
    46    23    43 1   
    47    24    29 1   
    48    25    44 1   
    49    25    45 1   
    50    26    27 1   
    51    26    46 1   
    52    27    28 1   
    53    27    47 1   
    54    27    48 1   
    55    28    49 1   
    56    28    50 1   
    57    29    30 2   
    58    29    51 1   
    59    52    58 1   
    60    52    59 1   
    61    52    60 1   
    62    53    55 1   
    63    53    56 1   
    64    53    57 1   
@<TRIPOS>SUBSTRUCTURE
     1 JQY         1 TEMP              0 ****  ****    0 ROOT
