@<TRIPOS>MOLECULE
JQY
   60    64     1     0     0
SMALL
No Charge or Current Charge


@<TRIPOS>ATOM
      1 C10         21.2470   -21.4770    35.4370 ca         1 JQY       0.245500
      2 C15         22.7710   -22.6370    30.2480 ca         1 JQY      -0.154000
      3 C17         21.6100   -20.9530    28.9120 ca         1 JQY      -0.094300
      4 C21         20.7580   -21.5970    31.1030 ca         1 JQY      -0.109000
      5 C24         21.3350   -22.5230    36.3770 ca         1 JQY      -0.254000
      6 C26         22.2800   -18.7530    34.0730 c6         1 JQY       0.080300
      7 C28         24.3250   -17.5940    33.1050 c6         1 JQY       0.159800
      8 C02         17.8290   -22.1340    39.4660 ca         1 JQY       0.171000
      9 C03         18.6270   -21.1100    39.9980 ca         1 JQY      -0.158500
     10 C04         19.3850   -20.2950    39.1400 ca         1 JQY      -0.064500
     11 C05         17.7750   -22.3400    38.0800 ca         1 JQY      -0.158500
     12 C06         18.5320   -21.5260    37.2200 ca         1 JQY      -0.064500
     13 C07         19.3660   -20.5140    37.7460 ca         1 JQY      -0.125500
     14 C08         20.1260   -19.6340    36.8560 cc         1 JQY       0.323500
     15 C09         20.9180   -20.0860    35.8240 cd         1 JQY      -0.266500
     16 N11         21.4270   -21.7360    34.1260 nb         1 JQY      -0.247000
     17 C12         21.7060   -23.0030    33.7740 ca         1 JQY       0.384900
     18 N13         21.9600   -23.2610    32.4350 nu         1 JQY      -0.937900
     19 C14         21.8270   -22.4930    31.2740 ca         1 JQY       0.301000
     20 C16         22.6690   -21.8680    29.0770 ca         1 JQY      -0.090000
     21 C19         20.6400   -20.8220    29.9320 ca         1 JQY      -0.062300
     22 N22         21.8330   -24.0540    34.5990 nb         1 JQY      -0.240000
     23 C23         21.6360   -23.8110    35.9080 ca         1 JQY       0.148900
     24 N25         21.3400   -18.8960    35.2180 na         1 JQY      -0.130500
     25 C27         23.3850   -17.6930    34.3290 c6         1 JQY      -0.087400
     26 N29         23.5590   -17.2970    31.8690 n7         1 JQY      -0.868400
     27 C30         22.5020   -18.2980    31.5830 c6         1 JQY       0.159800
     28 C31         21.5170   -18.4150    32.7700 c6         1 JQY      -0.087400
     29 C32         20.8020   -17.8310    35.9360 cd         1 JQY       0.405400
     30 N33         20.0670   -18.2760    36.9440 nc         1 JQY      -0.673000
     31 H151        23.5980   -23.3330    30.3610 ha         1 JQY       0.115000
     32 H211        20.0060   -21.5110    31.8810 ha         1 JQY       0.134000
     33 H241        21.2100   -22.3470    37.4400 ha         1 JQY       0.149000
     34 H261        22.8050   -19.7050    33.9280 h1         1 JQY       0.083700
     35 H281        24.8680   -18.5440    32.9810 h1         1 JQY       0.037200
     36 H282        25.0710   -16.8040    33.2750 h1         1 JQY       0.037200
     37 H031        18.6540   -20.9470    41.0730 ha         1 JQY       0.131500
     38 H041        19.9980   -19.4970    39.5560 ha         1 JQY       0.126000
     39 H051        17.1430   -23.1260    37.6740 ha         1 JQY       0.131500
     40 H061        18.4720   -21.6800    36.1450 ha         1 JQY       0.126000
     41 H131        22.4540   -24.1420    32.2950 hn         1 JQY       0.513000
     42 H161        23.4180   -21.9840    28.2970 ha         1 JQY       0.113000
     43 H231        21.7330   -24.6560    36.5880 h4         1 JQY       0.027100
     44 H272        23.9660   -17.9600    35.2220 hc         1 JQY       0.060450
     45 H271        22.9440   -16.7050    34.5190 hc         1 JQY       0.060450
     46 H1          24.2110   -17.2660    31.0740 hn         1 JQY       0.415000
     47 H301        21.9540   -18.0050    30.6750 h1         1 JQY       0.037200
     48 H302        22.9630   -19.2780    31.3910 h1         1 JQY       0.037200
     49 H312        20.9680   -17.4700    32.8860 hc         1 JQY       0.060450
     50 H311        20.7680   -19.1880    32.5600 hc         1 JQY       0.060450
     51 H321        20.9860   -16.7950    35.6750 h5         1 JQY       0.060100
     52 C18         21.5290   -20.1260    27.6320 c3         1 JQY      -0.044800
     53 C20         19.4660   -19.8570    29.7900 c3         1 JQY      -0.050800
     54 F01         17.0990   -22.9150    40.2920 f          1 JQY      -0.181000
     55 H203        18.8340   -20.1290    28.9360 hc         1 JQY       0.044700
     56 H202        18.8280   -19.8560    30.6810 hc         1 JQY       0.044700
     57 H201        19.8130   -18.8280    29.6390 hc         1 JQY       0.044700
     58 H183        20.5900   -20.3150    27.0980 hc         1 JQY       0.041700
     59 H182        21.5840   -19.0530    27.8510 hc         1 JQY       0.041700
     60 H181        22.3480   -20.3600    26.9420 hc         1 JQY       0.041700
@<TRIPOS>BOND
     1     1     5 ar  
     2     1    15 1   
     3     1    16 ar  
     4     2    19 ar  
     5     2    20 ar  
     6     2    31 1   
     7     3    20 ar  
     8     3    21 ar  
     9     3    52 1   
    10     4    19 ar  
    11     4    21 ar  
    12     4    32 1   
    13     5    23 ar  
    14     5    33 1   
    15     6    24 1   
    16     6    25 1   
    17     6    28 1   
    18     6    34 1   
    19     7    25 1   
    20     7    26 1   
    21     7    35 1   
    22     7    36 1   
    23     8     9 ar  
    24     8    11 ar  
    25     8    54 1   
    26     9    10 ar  
    27     9    37 1   
    28    10    13 ar  
    29    10    38 1   
    30    11    12 ar  
    31    11    39 1   
    32    12    13 ar  
    33    12    40 1   
    34    13    14 1   
    35    14    15 2   
    36    14    30 1   
    37    15    24 1   
    38    16    17 ar  
    39    17    18 1   
    40    17    22 ar  
    41    18    19 1   
    42    18    41 1   
    43    20    42 1   
    44    21    53 1   
    45    22    23 ar  
    46    23    43 1   
    47    24    29 1   
    48    25    44 1   
    49    25    45 1   
    50    26    27 1   
    51    26    46 1   
    52    27    28 1   
    53    27    47 1   
    54    27    48 1   
    55    28    49 1   
    56    28    50 1   
    57    29    30 2   
    58    29    51 1   
    59    52    58 1   
    60    52    59 1   
    61    52    60 1   
    62    53    55 1   
    63    53    56 1   
    64    53    57 1   
@<TRIPOS>SUBSTRUCTURE
     1 JQY         1 TEMP              0 ****  ****    0 ROOT
