@<TRIPOS>MOLECULE
JR0
   85    90     1     0     0
SMALL
No Charge or Current Charge


@<TRIPOS>ATOM
      1 C10        -26.1270    10.1650     4.7240 cc         1 JR0      -0.134300
      2 C15        -25.7220     7.4780     7.4670 c6         1 JR0       0.075500
      3 C20        -24.3020     8.7750    10.8100 c          1 JR0       0.612100
      4 C22        -23.0660     9.5730    11.3150 c6         1 JR0      -0.137700
      5 C24        -20.5110     9.6490    11.5120 c6         1 JR0       0.223300
      6 C26        -21.8820    10.8260    13.2160 c6         1 JR0       0.223300
      7 C28        -20.0250     9.2520    13.9920 ca         1 JR0       0.404900
      8 C01        -23.8950    13.9400    -0.9500 c3         1 JR0       0.146900
      9 C03        -24.4290    12.5290     1.0240 ca         1 JR0       0.092100
     10 C04        -24.0160    11.5710     2.0100 ca         1 JR0       0.109100
     11 C06        -21.6480    11.3070     1.2500 c3         1 JR0       0.148900
     12 C07        -24.9770    11.1660     2.9490 ca         1 JR0      -0.096800
     13 C08        -26.2570    11.6330     2.9540 ca         1 JR0      -0.056200
     14 C11        -24.9070    10.2360     4.0480 cd         1 JR0      -0.194200
     15 C12        -26.4990     9.2760     5.8690 c          1 JR0       0.634300
     16 C16        -25.7290     7.8560     8.9640 c6         1 JR0       0.073000
     17 C18        -24.0660     9.6780     8.4360 c6         1 JR0       0.073000
     18 C19        -24.1670     9.2930     6.9360 c6         1 JR0       0.075500
     19 C23        -21.7300     8.8250    11.0280 c6         1 JR0      -0.096400
     20 C27        -23.1540    10.0470    12.7970 c6         1 JR0      -0.096400
     21 C30        -19.6550     8.9280    16.2410 ca         1 JR0       0.169300
     22 C31        -19.9340     9.3500    17.6710 c3         1 JR0      -0.152400
     23 C32        -18.8060     7.8510    15.9440 ca         1 JR0      -0.227000
     24 C33        -18.6040     7.5190    14.5880 ca         1 JR0       0.107500
     25 C35        -17.7010     6.3610    14.1850 c          1 JR0       0.504600
     26 C38        -16.7980     5.0650    12.2270 c3         1 JR0       0.148300
     27 C39        -16.9580     5.0660    10.7140 ca         1 JR0      -0.117300
     28 C40        -16.0550     5.7830     9.9040 ca         1 JR0      -0.095000
     29 C41        -16.2110     5.7920     8.5070 ca         1 JR0      -0.113500
     30 C42        -17.2700     5.0850     7.9120 ca         1 JR0      -0.104000
     31 C43        -18.1740     4.3710     8.7160 ca         1 JR0      -0.113500
     32 C44        -18.0200     4.3620    10.1130 ca         1 JR0      -0.095000
     33 C45        -26.6970    12.5640     2.0100 ca         1 JR0      -0.097000
     34 C46        -25.7730    13.0120     1.0420 ca         1 JR0      -0.149000
     35 N09        -26.9630    11.0380     3.9880 na         1 JR0      -0.190700
     36 N14        -25.4620     8.6490     6.6030 n          1 JR0      -0.398800
     37 N17        -24.5400     8.6440     9.4150 n          1 JR0      -0.416800
     38 N25        -20.6690     9.9890    12.9590 nh         1 JR0      -0.770300
     39 N29        -20.2650     9.6270    15.2660 nb         1 JR0      -0.248000
     40 N34        -19.2220     8.2340    13.6170 nb         1 JR0      -0.269000
     41 N37        -17.5970     6.1260    12.8300 ns         1 JR0      -0.482900
     42 O02        -23.5380    12.9820     0.0630 os         1 JR0      -0.330100
     43 O05        -22.7500    11.0070     2.1240 os         1 JR0      -0.344100
     44 O13        -27.6730     9.0780     6.1580 o          1 JR0      -0.605100
     45 O21        -25.0000     8.1650    11.6110 o          1 JR0      -0.596100
     46 O36        -17.0990     5.6690    14.9980 o          1 JR0      -0.601100
     47 H151       -26.6770     7.0030     7.2010 h1         1 JR0       0.069450
     48 H152       -24.9350     6.7310     7.2940 h1         1 JR0       0.069450
     49 H221       -23.0030    10.4700    10.6880 hc         1 JR0       0.055700
     50 H242       -19.5820     9.0960    11.3090 h1         1 JR0       0.064450
     51 H241       -20.4430    10.5740    10.9190 h1         1 JR0       0.064450
     52 H262       -21.8200    11.7580    12.6350 h1         1 JR0       0.064450
     53 H261       -21.9690    11.1310    14.2690 h1         1 JR0       0.064450
     54 H011       -23.0320    14.1470    -1.5960 h1         1 JR0       0.039033
     55 H012       -24.7070    13.5570    -1.5800 h1         1 JR0       0.039033
     56 H013       -24.2140    14.8870    -0.4960 h1         1 JR0       0.039033
     57 H061       -20.7630    10.7320     1.5490 h1         1 JR0       0.035033
     58 H062       -21.8860    11.0390     0.2130 h1         1 JR0       0.035033
     59 H063       -21.3880    12.3720     1.2980 h1         1 JR0       0.035033
     60 H111       -24.0350     9.6220     4.2580 ha         1 JR0       0.212000
     61 H161       -26.6340     8.4450     9.1720 h1         1 JR0       0.064950
     62 H162       -25.8040     6.9300     9.5500 h1         1 JR0       0.064950
     63 H182       -23.0150     9.9320     8.6270 h1         1 JR0       0.064950
     64 H181       -24.6540    10.5920     8.5990 h1         1 JR0       0.064950
     65 H191       -24.0120    10.2140     6.3630 h1         1 JR0       0.069450
     66 H192       -23.3510     8.6000     6.6840 h1         1 JR0       0.069450
     67 H231       -21.7340     7.8530    11.5400 hc         1 JR0       0.062450
     68 H232       -21.6250     8.6090     9.9560 hc         1 JR0       0.062450
     69 H272       -23.2770     9.1810    13.4620 hc         1 JR0       0.062450
     70 H271       -24.0390    10.6820    12.9410 hc         1 JR0       0.062450
     71 H313       -20.0560    10.4370    17.7510 hc         1 JR0       0.057700
     72 H311       -20.8530     8.8800    18.0420 hc         1 JR0       0.057700
     73 H312       -19.1150     9.0600    18.3390 hc         1 JR0       0.057700
     74 H321       -18.3210     7.2880    16.7370 ha         1 JR0       0.157000
     75 H381       -15.7430     5.2140    12.4940 h1         1 JR0       0.063200
     76 H382       -17.1190     4.0970    12.6350 h1         1 JR0       0.063200
     77 H401       -15.2350     6.3360    10.3570 ha         1 JR0       0.117000
     78 H411       -15.5110     6.3470     7.8860 ha         1 JR0       0.113000
     79 H421       -17.3900     5.0930     6.8310 ha         1 JR0       0.112000
     80 H431       -18.9960     3.8250     8.2570 ha         1 JR0       0.113000
     81 H441       -18.7260     3.8090    10.7290 ha         1 JR0       0.117000
     82 H451       -27.7210    12.9310     2.0190 ha         1 JR0       0.120000
     83 H461       -26.1210    13.7360     0.3120 ha         1 JR0       0.119000
     84 H091       -27.9470    11.1960     4.1840 hn         1 JR0       0.368000
     85 H371       -18.1250     6.7400    12.2200 hn         1 JR0       0.340500
@<TRIPOS>BOND
     1     1    14 2   
     2     1    15 1   
     3     1    35 1   
     4     2    16 1   
     5     2    36 1   
     6     2    47 1   
     7     2    48 1   
     8     3     4 1   
     9     3    37 1   
    10     3    45 2   
    11     4    19 1   
    12     4    20 1   
    13     4    49 1   
    14     5    19 1   
    15     5    38 1   
    16     5    50 1   
    17     5    51 1   
    18     6    20 1   
    19     6    38 1   
    20     6    52 1   
    21     6    53 1   
    22     7    38 1   
    23     7    39 ar  
    24     7    40 ar  
    25     8    42 1   
    26     8    54 1   
    27     8    55 1   
    28     8    56 1   
    29     9    10 ar  
    30     9    34 ar  
    31     9    42 1   
    32    10    12 ar  
    33    10    43 1   
    34    11    43 1   
    35    11    57 1   
    36    11    58 1   
    37    11    59 1   
    38    12    13 ar  
    39    12    14 1   
    40    13    33 ar  
    41    13    35 1   
    42    14    60 1   
    43    15    36 1   
    44    15    44 2   
    45    16    37 1   
    46    16    61 1   
    47    16    62 1   
    48    17    18 1   
    49    17    37 1   
    50    17    63 1   
    51    17    64 1   
    52    18    36 1   
    53    18    65 1   
    54    18    66 1   
    55    19    67 1   
    56    19    68 1   
    57    20    69 1   
    58    20    70 1   
    59    21    22 1   
    60    21    23 ar  
    61    21    39 ar  
    62    22    71 1   
    63    22    72 1   
    64    22    73 1   
    65    23    24 ar  
    66    23    74 1   
    67    24    25 1   
    68    24    40 ar  
    69    25    41 1   
    70    25    46 2   
    71    26    27 1   
    72    26    41 1   
    73    26    75 1   
    74    26    76 1   
    75    27    28 ar  
    76    27    32 ar  
    77    28    29 ar  
    78    28    77 1   
    79    29    30 ar  
    80    29    78 1   
    81    30    31 ar  
    82    30    79 1   
    83    31    32 ar  
    84    31    80 1   
    85    32    81 1   
    86    33    34 ar  
    87    33    82 1   
    88    34    83 1   
    89    35    84 1   
    90    41    85 1   
@<TRIPOS>SUBSTRUCTURE
     1 JR0         1 TEMP              0 ****  ****    0 ROOT
