@<TRIPOS>MOLECULE
JR0
   85    90     1     0     0
SMALL
abcg2


@<TRIPOS>ATOM
      1 C10        -26.0290    10.4870     4.9970 cc         1 JR0      -0.134300
      2 C15        -26.6750     8.6850     8.2510 c6         1 JR0       0.075500
      3 C20        -24.9270     9.5400    11.1520 c          1 JR0       0.612100
      4 C22        -23.5280    10.0110    11.5140 c6         1 JR0      -0.137700
      5 C24        -21.0740     9.4770    11.3460 c6         1 JR0       0.223300
      6 C26        -21.9180    10.5190    13.3610 c6         1 JR0       0.223300
      7 C28        -20.3240     8.6590    13.5390 ca         1 JR0       0.404900
      8 C01        -23.2990    12.5820    -1.0300 c3         1 JR0       0.146900
      9 C03        -24.0400    11.7900     1.0840 ca         1 JR0       0.092100
     10 C04        -23.7810    10.9990     2.1970 ca         1 JR0       0.109100
     11 C06        -22.6290     9.0120     1.7750 c3         1 JR0       0.148900
     12 C07        -24.7510    10.9050     3.2020 ca         1 JR0      -0.096800
     13 C08        -25.9600    11.6200     3.0780 ca         1 JR0      -0.056200
     14 C11        -24.8110    10.1950     4.4340 cd         1 JR0      -0.194200
     15 C12        -26.7450     9.9070     6.1570 c          1 JR0       0.634300
     16 C16        -26.7630     9.4670     9.5500 c6         1 JR0       0.073000
     17 C18        -24.7860    10.6980     8.9290 c6         1 JR0       0.073000
     18 C19        -24.7100     9.9400     7.6050 c6         1 JR0       0.075500
     19 C23        -22.4780     9.0570    10.9260 c6         1 JR0      -0.096400
     20 C27        -23.3490    10.1140    13.0280 c6         1 JR0      -0.096400
     21 C30        -19.7450     7.8910    15.6100 ca         1 JR0       0.169300
     22 C31        -19.8740     8.0200    17.0930 c3         1 JR0      -0.152400
     23 C32        -18.9520     6.8990    15.0340 ca         1 JR0      -0.227000
     24 C33        -18.9290     6.8720    13.6530 ca         1 JR0       0.107500
     25 C35        -18.1010     5.8290    12.9400 c          1 JR0       0.504600
     26 C38        -17.5090     4.9710    10.7120 c3         1 JR0       0.148300
     27 C39        -16.3310     5.6590    10.0650 ca         1 JR0      -0.117300
     28 C40        -15.2030     5.9850    10.8160 ca         1 JR0      -0.095000
     29 C41        -14.1310     6.6400    10.2280 ca         1 JR0      -0.113500
     30 C42        -14.1710     6.9760     8.8800 ca         1 JR0      -0.104000
     31 C43        -15.2880     6.6510     8.1240 ca         1 JR0      -0.113500
     32 C44        -16.3620     5.9960     8.7170 ca         1 JR0      -0.095000
     33 C45        -26.2200    12.4260     1.9740 ca         1 JR0      -0.097000
     34 C46        -25.2530    12.5010     0.9900 ca         1 JR0      -0.149000
     35 N09        -26.7140    11.3400     4.1780 na         1 JR0      -0.190700
     36 N14        -26.0260     9.4670     7.2130 n          1 JR0      -0.398800
     37 N17        -25.4410     9.9100     9.9540 n          1 JR0      -0.416800
     38 N25        -20.9750     9.5760    12.7890 nh         1 JR0      -0.770300
     39 N29        -20.4200     8.7560    14.8700 nb         1 JR0      -0.248000
     40 N34        -19.6040     7.7260    12.9040 nb         1 JR0      -0.269000
     41 N37        -18.2300     5.8440    11.6110 ns         1 JR0      -0.482900
     42 O02        -23.0730    11.8260     0.1390 os         1 JR0      -0.330100
     43 O05        -22.6060    10.3250     2.3200 os         1 JR0      -0.344100
     44 O13        -27.9630     9.7880     6.0840 o          1 JR0      -0.605100
     45 O21        -25.5580     8.8290    11.9230 o          1 JR0      -0.596100
     46 O36        -17.3930     5.0580    13.5710 o          1 JR0      -0.601100
     47 H151       -27.6680     8.3870     7.9250 h1         1 JR0       0.069450
     48 H152       -26.0860     7.7770     8.4140 h1         1 JR0       0.069450
     49 H221       -23.3460    11.0110    11.1070 hc         1 JR0       0.055700
     50 H242       -20.3340     8.7770    10.9690 h1         1 JR0       0.064450
     51 H241       -20.8440    10.4600    10.9200 h1         1 JR0       0.064450
     52 H262       -21.7040    11.5080    12.9440 h1         1 JR0       0.064450
     53 H261       -21.7730    10.5780    14.4350 h1         1 JR0       0.064450
     54 H011       -22.4170    12.4570    -1.6540 h1         1 JR0       0.039033
     55 H012       -24.1730    12.2300    -1.5870 h1         1 JR0       0.039033
     56 H013       -23.4270    13.6470    -0.8160 h1         1 JR0       0.039033
     57 H061       -21.6470     8.5750     1.9470 h1         1 JR0       0.035033
     58 H062       -23.3810     8.3860     2.2640 h1         1 JR0       0.035033
     59 H063       -22.8260     9.0210     0.7010 h1         1 JR0       0.035033
     60 H111       -24.0680     9.5230     4.8320 ha         1 JR0       0.212000
     61 H161       -27.4100    10.3410     9.4150 h1         1 JR0       0.064950
     62 H162       -27.1980     8.8470    10.3280 h1         1 JR0       0.064950
     63 H182       -23.7770    10.9750     9.2220 h1         1 JR0       0.064950
     64 H181       -25.3470    11.6270     8.7780 h1         1 JR0       0.064950
     65 H191       -24.3030    10.6090     6.8530 h1         1 JR0       0.069450
     66 H192       -24.0310     9.0880     7.7040 h1         1 JR0       0.069450
     67 H231       -22.6720     8.0380    11.2740 hc         1 JR0       0.062450
     68 H232       -22.5320     9.0390     9.8350 hc         1 JR0       0.062450
     69 H272       -23.5740     9.1600    13.5080 hc         1 JR0       0.062450
     70 H271       -24.0350    10.8570    13.4430 hc         1 JR0       0.062450
     71 H313       -19.5670     9.0150    17.4160 hc         1 JR0       0.057700
     72 H311       -20.9130     7.8890    17.3960 hc         1 JR0       0.057700
     73 H312       -19.2670     7.2840    17.6160 hc         1 JR0       0.057700
     74 H321       -18.3960     6.1950    15.6330 ha         1 JR0       0.157000
     75 H381       -17.1820     4.0960    11.2730 h1         1 JR0       0.063200
     76 H382       -18.2020     4.6210     9.9450 h1         1 JR0       0.063200
     77 H401       -15.1610     5.7220    11.8660 ha         1 JR0       0.117000
     78 H411       -13.2590     6.8860    10.8220 ha         1 JR0       0.113000
     79 H421       -13.3330     7.4860     8.4210 ha         1 JR0       0.112000
     80 H431       -15.3270     6.9080     7.0730 ha         1 JR0       0.113000
     81 H441       -17.2330     5.7460     8.1220 ha         1 JR0       0.117000
     82 H451       -27.1460    12.9770     1.8770 ha         1 JR0       0.120000
     83 H461       -25.4530    13.1220     0.1280 ha         1 JR0       0.119000
     84 H091       -27.6470    11.6770     4.3530 hn         1 JR0       0.368000
     85 H371       -18.8170     6.5660    11.2180 hn         1 JR0       0.340500
@<TRIPOS>BOND
     1     1    14 2   
     2     1    15 1   
     3     1    35 1   
     4     2    16 1   
     5     2    36 1   
     6     2    47 1   
     7     2    48 1   
     8     3     4 1   
     9     3    37 1   
    10     3    45 2   
    11     4    19 1   
    12     4    20 1   
    13     4    49 1   
    14     5    19 1   
    15     5    38 1   
    16     5    50 1   
    17     5    51 1   
    18     6    20 1   
    19     6    38 1   
    20     6    52 1   
    21     6    53 1   
    22     7    38 1   
    23     7    39 ar  
    24     7    40 ar  
    25     8    42 1   
    26     8    54 1   
    27     8    55 1   
    28     8    56 1   
    29     9    10 ar  
    30     9    34 ar  
    31     9    42 1   
    32    10    12 ar  
    33    10    43 1   
    34    11    43 1   
    35    11    57 1   
    36    11    58 1   
    37    11    59 1   
    38    12    13 ar  
    39    12    14 1   
    40    13    33 ar  
    41    13    35 1   
    42    14    60 1   
    43    15    36 1   
    44    15    44 2   
    45    16    37 1   
    46    16    61 1   
    47    16    62 1   
    48    17    18 1   
    49    17    37 1   
    50    17    63 1   
    51    17    64 1   
    52    18    36 1   
    53    18    65 1   
    54    18    66 1   
    55    19    67 1   
    56    19    68 1   
    57    20    69 1   
    58    20    70 1   
    59    21    22 1   
    60    21    23 ar  
    61    21    39 ar  
    62    22    71 1   
    63    22    72 1   
    64    22    73 1   
    65    23    24 ar  
    66    23    74 1   
    67    24    25 1   
    68    24    40 ar  
    69    25    41 1   
    70    25    46 2   
    71    26    27 1   
    72    26    41 1   
    73    26    75 1   
    74    26    76 1   
    75    27    28 ar  
    76    27    32 ar  
    77    28    29 ar  
    78    28    77 1   
    79    29    30 ar  
    80    29    78 1   
    81    30    31 ar  
    82    30    79 1   
    83    31    32 ar  
    84    31    80 1   
    85    32    81 1   
    86    33    34 ar  
    87    33    82 1   
    88    34    83 1   
    89    35    84 1   
    90    41    85 1   
@<TRIPOS>SUBSTRUCTURE
     1 JR0         1 TEMP              0 ****  ****    0 ROOT
