@<TRIPOS>MOLECULE
JR2
   28    30     1     0     0
SMALL
No Charge or Current Charge


@<TRIPOS>ATOM
      1 N1          -0.1490    -1.6070     0.0290 nb         1 JR2      -0.357000
      2 C2          -1.4580    -1.8930     0.0160 ca         1 JR2       0.413900
      3 N3          -2.4940    -1.0400     0.0020 nb         1 JR2      -0.304000
      4 C4          -2.1620     0.2600     0.0090 ca         1 JR2       0.185500
      5 C5          -0.8500     0.6660     0.0260 ca         1 JR2      -0.291800
      6 C6           0.1820    -0.2990     0.0270 ca         1 JR2       0.473900
      7 NAA         -1.7700    -3.2070     0.0100 nv         1 JR2      -1.039900
      8 CAB         -2.1850     2.5710     0.0500 cc         1 JR2      -0.198100
      9 CAC         -0.8800     2.1150     0.0600 cd         1 JR2      -0.191200
     10 CAD          3.8980    -0.1520     0.3420 c5         1 JR2      -0.097400
     11 CAE          3.5970     0.8740    -0.7780 c5         1 JR2      -0.097400
     12 CAF          2.6170    -1.0230     0.2980 c5         1 JR2       0.230800
     13 CAG          2.1450     1.2860    -0.4250 c5         1 JR2       0.230800
     14 NAJ         -2.9590     1.3930     0.0150 na         1 JR2      -0.325400
     15 NAO          1.5660    -0.0020     0.0330 nh         1 JR2      -0.783300
     16 HNAA        -1.0320    -3.8730    -0.2050 hn         1 JR2       0.474000
     17 HNAB        -2.7200    -3.4790    -0.2270 hn         1 JR2       0.474000
     18 HAB         -2.6030     3.5760     0.0720 h4         1 JR2       0.213000
     19 HAC         -0.0190     2.7750     0.1070 ha         1 JR2       0.197000
     20 HADA         4.0130     0.3380     1.3160 hc         1 JR2       0.054200
     21 HAE          4.2850     1.7270    -0.7730 hc         1 JR2       0.054200
     22 HAEA         3.6490     0.4120    -1.7710 hc         1 JR2       0.054200
     23 HAF          2.6680    -1.7600    -0.5160 h1         1 JR2       0.054700
     24 HAFA         2.4610    -1.5570     1.2450 h1         1 JR2       0.054700
     25 HAG          2.1330     2.0330     0.3820 h1         1 JR2       0.054700
     26 HAGA         1.6250     1.6990    -1.3000 h1         1 JR2       0.054700
     27 HNAJ        -3.9740     1.3610     0.0010 hn         1 JR2       0.357000
     28 HAD          4.8060    -0.7350     0.1550 hc         1 JR2       0.054200
@<TRIPOS>BOND
     1     1     2 ar  
     2     1     6 ar  
     3     2     3 ar  
     4     2     7 1   
     5     3     4 ar  
     6     4     5 ar  
     7     4    14 1   
     8     5     6 ar  
     9     5     9 1   
    10     6    15 1   
    11     7    16 1   
    12     7    17 1   
    13     8     9 2   
    14     8    14 1   
    15     8    18 1   
    16     9    19 1   
    17    10    11 1   
    18    10    12 1   
    19    10    20 1   
    20    10    28 1   
    21    11    13 1   
    22    11    21 1   
    23    11    22 1   
    24    12    15 1   
    25    12    23 1   
    26    12    24 1   
    27    13    15 1   
    28    13    25 1   
    29    13    26 1   
    30    14    27 1   
@<TRIPOS>SUBSTRUCTURE
     1 JR2         1 TEMP              0 ****  ****    0 ROOT
