@<TRIPOS>MOLECULE
JR2
   28    30     1     0     0
SMALL
bcc


@<TRIPOS>ATOM
      1 N1          -0.1350    -1.5380     0.1030 nb         1 JR2      -0.883000
      2 C2          -1.4360    -1.8490     0.1400 ca         1 JR2       0.939900
      3 N3          -2.4620    -1.0110     0.0850 nb         1 JR2      -0.830000
      4 C4          -2.0800     0.2650    -0.0020 ca         1 JR2       0.513800
      5 C5          -0.7640     0.7500    -0.0460 ca         1 JR2      -0.422400
      6 C6           0.2310    -0.2580     0.0060 ca         1 JR2       0.802200
      7 NAA         -1.7240    -3.1750     0.2880 nv         1 JR2      -0.929500
      8 CAB         -2.1810     2.4890    -0.1190 cc         1 JR2      -0.148100
      9 CAC         -0.8550     2.1820    -0.1170 cd         1 JR2      -0.141200
     10 CAD          3.8520    -0.2910     0.2270 c5         1 JR2      -0.097400
     11 CAE          3.5990     0.9780    -0.5800 c5         1 JR2      -0.097400
     12 CAF          2.5460    -1.0630     0.0780 c5         1 JR2       0.230800
     13 CAG          2.1400     1.2990    -0.2750 c5         1 JR2       0.230800
     14 NAJ         -2.9160     1.3270    -0.0530 na         1 JR2      -0.275100
     15 NAO          1.5470    -0.0080    -0.0360 nh         1 JR2      -0.783300
     16 HNAA        -0.9980    -3.8190     0.0210 hn         1 JR2       0.418800
     17 HNAB        -2.6520    -3.4620     0.0270 hn         1 JR2       0.418800
     18 HAB         -2.6700     3.4470    -0.1640 h4         1 JR2       0.163000
     19 HAC         -0.0560     2.9020    -0.1550 ha         1 JR2       0.147000
     20 HADA         4.0260    -0.0440     1.2770 hc         1 JR2       0.054200
     21 HAE          4.2630     1.8000    -0.3150 hc         1 JR2       0.054200
     22 HAEA         3.7240     0.7780    -1.6460 hc         1 JR2       0.054200
     23 HAF          2.5530    -1.6910    -0.8180 h1         1 JR2       0.054700
     24 HAFA         2.3400    -1.7120     0.9280 h1         1 JR2       0.054700
     25 HAG          2.0560     1.9380     0.6110 h1         1 JR2       0.054700
     26 HAGA         1.6530     1.8120    -1.1050 h1         1 JR2       0.054700
     27 HNAJ        -3.9210     1.2720    -0.0340 hn         1 JR2       0.306700
     28 HAD          4.7090    -0.8620    -0.1270 hc         1 JR2       0.054200
@<TRIPOS>BOND
     1     1     2 ar  
     2     1     6 ar  
     3     2     3 ar  
     4     2     7 1   
     5     3     4 ar  
     6     4     5 ar  
     7     4    14 1   
     8     5     6 ar  
     9     5     9 1   
    10     6    15 1   
    11     7    16 1   
    12     7    17 1   
    13     8     9 2   
    14     8    14 1   
    15     8    18 1   
    16     9    19 1   
    17    10    11 1   
    18    10    12 1   
    19    10    20 1   
    20    10    28 1   
    21    11    13 1   
    22    11    21 1   
    23    11    22 1   
    24    12    15 1   
    25    12    23 1   
    26    12    24 1   
    27    13    15 1   
    28    13    25 1   
    29    13    26 1   
    30    14    27 1   
@<TRIPOS>SUBSTRUCTURE
     1 JR2         1 TEMP              0 ****  ****    0 ROOT
