@<TRIPOS>MOLECULE
JR4
   43    45     1     0     0
SMALL
bcc


@<TRIPOS>ATOM
      1 C01         -5.0760     1.8800    -1.6920 c3         1 JR4       0.102300
      2 C03         -4.8980     1.1580     0.6960 c          1 JR4       0.805500
      3 C06         -4.1000     0.1200     2.8200 c3         1 JR4       0.103300
      4 C07         -2.9800    -0.0100     0.5840 ca         1 JR4      -0.020400
      5 C08         -1.8610    -0.7720     0.8170 ca         1 JR4      -0.030000
      6 C09         -1.0210    -1.0300    -0.2710 ca         1 JR4      -0.310500
      7 C10         -1.2770    -0.5390    -1.5610 ca         1 JR4       0.020700
      8 C11         -0.3670    -0.7570    -2.7380 c3         1 JR4      -0.081800
      9 C12         -2.4240     0.2320    -1.7600 ca         1 JR4      -0.158000
     10 C13         -3.2620     0.4830    -0.6920 ca         1 JR4       0.060600
     11 C18          1.9070     0.1650     0.3000 c3         1 JR4       0.259100
     12 C19          3.3640     0.5330     0.3220 ca         1 JR4      -0.118300
     13 C20          4.2750    -0.2490     1.0300 ca         1 JR4      -0.083000
     14 C21          5.6190     0.0830     1.0690 ca         1 JR4      -0.173000
     15 C22          6.0420     1.2100     0.3870 ca         1 JR4       0.143900
     16 C24          5.1700     2.0050    -0.3280 ca         1 JR4      -0.173000
     17 C25          3.8260     1.6530    -0.3560 ca         1 JR4      -0.083000
     18 F23          7.3430     1.5400     0.4240 f          1 JR4      -0.141900
     19 N02         -4.4330     1.1860    -0.6040 n          1 JR4      -0.357000
     20 N05         -3.9890     0.4190     1.4150 n          1 JR4      -0.357000
     21 N17          1.7370    -1.1520    -0.3040 n7         1 JR4      -0.824100
     22 O15          0.4310    -2.2750     1.4970 o          1 JR4      -0.605800
     23 O16          0.4240    -3.1830    -0.8370 o          1 JR4      -0.605800
     24 S14          0.4020    -2.0400     0.0620 sy         1 JR4       1.297200
     25 H1          -6.0620     2.2050    -1.3720 h1         1 JR4       0.054700
     26 H2          -4.4990     2.7530    -1.9930 h1         1 JR4       0.054700
     27 H3          -5.1880     1.2160    -2.5470 h1         1 JR4       0.054700
     28 H4          -4.9270     0.6850     3.2380 h1         1 JR4       0.055700
     29 H5          -4.2830    -0.9420     2.9800 h1         1 JR4       0.055700
     30 H6          -3.1870     0.4060     3.3420 h1         1 JR4       0.055700
     31 H7          -1.6370    -1.1560     1.8020 ha         1 JR4       0.173000
     32 H8          -0.0520    -1.7920    -2.8470 hc         1 JR4       0.058700
     33 H9          -0.8730    -0.4720    -3.6590 hc         1 JR4       0.058700
     34 H10          0.5290    -0.1350    -2.6700 hc         1 JR4       0.058700
     35 H11         -2.6450     0.6190    -2.7460 ha         1 JR4       0.143000
     36 H12          1.5250     0.1230     1.3210 h1         1 JR4       0.056200
     37 H13          1.3310     0.9310    -0.2280 h1         1 JR4       0.056200
     38 H14          3.9320    -1.1290     1.5580 ha         1 JR4       0.141000
     39 H15          6.3250    -0.5220     1.6230 ha         1 JR4       0.152500
     40 H16          5.5290     2.8790    -0.8560 ha         1 JR4       0.152500
     41 H17          3.1330     2.2660    -0.9200 ha         1 JR4       0.141000
     42 H18          2.0000    -1.2110    -1.2810 hn         1 JR4       0.433800
     43 O04         -5.9100     1.6850     1.1160 o          1 JR4      -0.626500
@<TRIPOS>BOND
     1     1    19 1   
     2     1    25 1   
     3     1    26 1   
     4     1    27 1   
     5     2    19 1   
     6     2    20 1   
     7     2    43 2   
     8     3    20 1   
     9     3    28 1   
    10     3    29 1   
    11     3    30 1   
    12     4     5 ar  
    13     4    10 ar  
    14     4    20 1   
    15     5     6 ar  
    16     5    31 1   
    17     6     7 ar  
    18     6    24 1   
    19     7     8 1   
    20     7     9 ar  
    21     8    32 1   
    22     8    33 1   
    23     8    34 1   
    24     9    10 ar  
    25     9    35 1   
    26    10    19 1   
    27    11    12 1   
    28    11    21 1   
    29    11    36 1   
    30    11    37 1   
    31    12    13 ar  
    32    12    17 ar  
    33    13    14 ar  
    34    13    38 1   
    35    14    15 ar  
    36    14    39 1   
    37    15    16 ar  
    38    15    18 1   
    39    16    17 ar  
    40    16    40 1   
    41    17    41 1   
    42    21    24 1   
    43    21    42 1   
    44    22    24 2   
    45    23    24 2   
@<TRIPOS>SUBSTRUCTURE
     1 JR4         1 TEMP              0 ****  ****    0 ROOT
