@<TRIPOS>MOLECULE
JR4
   43    45     1     0     0
SMALL
No Charge or Current Charge


@<TRIPOS>ATOM
      1 C01         -4.9710     2.2370    -1.0720 c3         1 JR4       0.102300
      2 C03         -4.5180     1.1430     1.1710 c          1 JR4       0.596000
      3 C06         -3.2140     0.1330     3.0960 c3         1 JR4       0.103300
      4 C07         -2.5360     0.0750     0.6230 ca         1 JR4      -0.020400
      5 C08         -1.5340    -0.9000     0.5700 ca         1 JR4      -0.012000
      6 C09         -0.9330    -1.2020    -0.6800 ca         1 JR4      -0.310500
      7 C10         -1.4320    -0.5830    -1.8740 ca         1 JR4       0.020700
      8 C11         -0.8800    -0.8760    -3.2660 c3         1 JR4      -0.081800
      9 C12         -2.5270     0.3090    -1.7890 ca         1 JR4      -0.140000
     10 C13         -3.0260     0.6590    -0.5320 ca         1 JR4       0.060600
     11 C18          1.9080    -0.1740    -0.6310 c3         1 JR4       0.259100
     12 C19          3.1420     0.4620    -0.0100 ca         1 JR4      -0.118300
     13 C20          3.0630     1.0540     1.2670 ca         1 JR4      -0.065000
     14 C21          4.2000     1.6450     1.8450 ca         1 JR4      -0.155000
     15 C22          5.4180     1.6450     1.1490 ca         1 JR4       0.179000
     16 C24          5.5070     1.0570    -0.1220 ca         1 JR4      -0.155000
     17 C25          4.3710     0.4650    -0.7020 ca         1 JR4      -0.065000
     18 F23          6.5100     2.2130     1.7050 f          1 JR4      -0.177000
     19 N02         -4.2540     1.2930    -0.1970 n          1 JR4      -0.290000
     20 N05         -3.4670     0.3560     1.6620 n          1 JR4      -0.290000
     21 N17          1.6510    -1.4720     0.0000 n7         1 JR4      -0.879300
     22 O15          0.1410    -3.3920     0.4100 o          1 JR4      -0.535000
     23 O16          0.8800    -2.7920    -1.9680 o          1 JR4      -0.535000
     24 S14          0.4270    -2.4040    -0.6330 sy         1 JR4       1.155600
     25 H1          -5.9480     2.4890    -0.6410 h1         1 JR4       0.054700
     26 H2          -4.3790     3.1530    -1.1870 h1         1 JR4       0.054700
     27 H3          -5.1260     1.7820    -2.0580 h1         1 JR4       0.054700
     28 H4          -3.6840     0.9250     3.6930 h1         1 JR4       0.055700
     29 H5          -3.6290    -0.8370     3.3950 h1         1 JR4       0.055700
     30 H6          -2.1340     0.1390     3.2900 h1         1 JR4       0.055700
     31 H7          -1.2250    -1.4080     1.4810 ha         1 JR4       0.155000
     32 H8          -1.0360    -1.9240    -3.5430 hc         1 JR4       0.058700
     33 H9          -1.3720    -0.2680    -4.0340 hc         1 JR4       0.058700
     34 H10          0.1910    -0.6510    -3.3280 hc         1 JR4       0.058700
     35 H11         -2.9820     0.7190    -2.6870 ha         1 JR4       0.125000
     36 H12          1.0580     0.5090    -0.4910 h1         1 JR4       0.056200
     37 H13          2.0640    -0.2840    -1.7130 h1         1 JR4       0.056200
     38 H14          2.1190     1.0520     1.8100 ha         1 JR4       0.123000
     39 H15          4.1390     2.1010     2.8300 ha         1 JR4       0.134500
     40 H16          6.4550     1.0600    -0.6550 ha         1 JR4       0.134500
     41 H17          4.4460     0.0100    -1.6880 ha         1 JR4       0.123000
     42 H18          2.4520    -2.0770    -0.1640 hn         1 JR4       0.489000
     43 O04         -5.4440     1.6290     1.8070 o          1 JR4      -0.551000
@<TRIPOS>BOND
     1     1    19 1   
     2     1    25 1   
     3     1    26 1   
     4     1    27 1   
     5     2    19 1   
     6     2    20 1   
     7     2    43 2   
     8     3    20 1   
     9     3    28 1   
    10     3    29 1   
    11     3    30 1   
    12     4     5 ar  
    13     4    10 ar  
    14     4    20 1   
    15     5     6 ar  
    16     5    31 1   
    17     6     7 ar  
    18     6    24 1   
    19     7     8 1   
    20     7     9 ar  
    21     8    32 1   
    22     8    33 1   
    23     8    34 1   
    24     9    10 ar  
    25     9    35 1   
    26    10    19 1   
    27    11    12 1   
    28    11    21 1   
    29    11    36 1   
    30    11    37 1   
    31    12    13 ar  
    32    12    17 ar  
    33    13    14 ar  
    34    13    38 1   
    35    14    15 ar  
    36    14    39 1   
    37    15    16 ar  
    38    15    18 1   
    39    16    17 ar  
    40    16    40 1   
    41    17    41 1   
    42    21    24 1   
    43    21    42 1   
    44    22    24 2   
    45    23    24 2   
@<TRIPOS>SUBSTRUCTURE
     1 JR4         1 TEMP              0 ****  ****    0 ROOT
