@<TRIPOS>MOLECULE
JR5
   48    51     1     0     0
SMALL
bcc


@<TRIPOS>ATOM
      1 C01         -2.7650     1.3330    -2.9220 c3         1 JR5       0.045600
      2 C04         -4.3140    -0.1700    -0.2010 cc         1 JR5       0.302600
      3 C05         -3.2840     0.4300     0.5200 cc         1 JR5      -0.271600
      4 C06         -2.5540     1.0970    -0.4300 cd         1 JR5       0.037300
      5 C08         -0.1960     1.4310    -0.7150 c          1 JR5       0.645100
      6 C10          0.9640     2.3760    -0.4390 c5         1 JR5       0.168500
      7 C11          1.4870     2.9860    -1.7580 c5         1 JR5      -0.078400
      8 C12          3.0090     2.8830    -1.6620 c5         1 JR5      -0.080400
      9 C13          3.2250     1.5980    -0.8810 c5         1 JR5       0.222800
     10 C18          1.9550    -0.9590     0.8910 ca         1 JR5      -0.311500
     11 C19          3.1070    -1.6150     0.4760 ca         1 JR5       0.005500
     12 C20          3.0310    -2.9290     0.0450 ca         1 JR5      -0.192500
     13 C21          1.8000    -3.5580     0.0580 ca         1 JR5       0.192900
     14 C23          0.6470    -2.9260     0.4850 ca         1 JR5      -0.192500
     15 C24          0.7280    -1.6090     0.9030 ca         1 JR5       0.005500
     16 C25         -3.3530     0.0910     1.9710 c5         1 JR5       0.014900
     17 C26         -4.7910    -0.4890     2.0820 c5         1 JR5      -0.082400
     18 C27         -5.2070    -0.9870     0.6740 c5         1 JR5      -0.099700
     19 F22          1.7240    -4.8280    -0.3540 f          1 JR5      -0.135900
     20 N02         -3.1780     0.8770    -1.6180 na         1 JR5       0.107400
     21 N03         -4.2480     0.0860    -1.4920 nd         1 JR5      -0.488800
     22 N14          2.1250     1.6600     0.0750 n3         1 JR5      -0.780500
     23 O09         -0.0320     0.3710    -1.2820 o          1 JR5      -0.573100
     24 O16          0.8250     1.0780     2.0910 o          1 JR5      -0.614800
     25 O17          3.3380     0.8640     2.1020 o          1 JR5      -0.614800
     26 S15          2.0650     0.7290     1.4130 sy         1 JR5       1.342200
     27 H1          -2.1670     0.5800    -3.4330 h1         1 JR5       0.056700
     28 H2          -3.6470     1.5550    -3.5160 h1         1 JR5       0.056700
     29 H3          -2.1770     2.2420    -2.8230 h1         1 JR5       0.056700
     30 H4           0.6720     3.1640     0.2580 h1         1 JR5       0.079700
     31 H5           1.1300     2.4100    -2.6120 hc         1 JR5       0.059700
     32 H6           1.1370     4.0090    -1.8790 hc         1 JR5       0.059700
     33 H7           3.4850     2.8570    -2.6410 hc         1 JR5       0.059200
     34 H8           3.4180     3.7270    -1.1050 hc         1 JR5       0.059200
     35 H9           3.1410     0.7190    -1.5280 h1         1 JR5       0.060700
     36 H10          4.1860     1.5670    -0.3720 h1         1 JR5       0.060700
     37 H11          4.0700    -1.1210     0.4900 ha         1 JR5       0.154000
     38 H12          3.9170    -3.4550    -0.2840 ha         1 JR5       0.155000
     39 H13         -0.2980    -3.4530     0.4920 ha         1 JR5       0.155000
     40 H14         -0.1660    -1.1060     1.2450 ha         1 JR5       0.154000
     41 H15         -2.6010    -0.6570     2.2380 hc         1 JR5       0.053200
     42 H16         -3.2070     0.9400     2.6400 hc         1 JR5       0.053200
     43 H17         -4.8600    -1.2740     2.8340 hc         1 JR5       0.044700
     44 H18         -5.4680     0.3110     2.3880 hc         1 JR5       0.044700
     45 H19         -6.2710    -0.8430     0.4850 hc         1 JR5       0.058200
     46 H20         -5.0000    -2.0540     0.5520 hc         1 JR5       0.058200
     47 H21         -1.4620     2.7170     0.2440 hn         1 JR5       0.341500
     48 N07         -1.4100     1.8850    -0.3240 ns         1 JR5      -0.455100
@<TRIPOS>BOND
     1     1    20 1   
     2     1    27 1   
     3     1    28 1   
     4     1    29 1   
     5     2     3 1   
     6     2    18 1   
     7     2    21 2   
     8     3     4 2   
     9     3    16 1   
    10     4    20 1   
    11     4    48 1   
    12     5     6 1   
    13     5    23 2   
    14     5    48 1   
    15     6     7 1   
    16     6    22 1   
    17     6    30 1   
    18     7     8 1   
    19     7    31 1   
    20     7    32 1   
    21     8     9 1   
    22     8    33 1   
    23     8    34 1   
    24     9    22 1   
    25     9    35 1   
    26     9    36 1   
    27    10    11 ar  
    28    10    15 ar  
    29    10    26 1   
    30    11    12 ar  
    31    11    37 1   
    32    12    13 ar  
    33    12    38 1   
    34    13    14 ar  
    35    13    19 1   
    36    14    15 ar  
    37    14    39 1   
    38    15    40 1   
    39    16    17 1   
    40    16    41 1   
    41    16    42 1   
    42    17    18 1   
    43    17    43 1   
    44    17    44 1   
    45    18    45 1   
    46    18    46 1   
    47    20    21 1   
    48    22    26 1   
    49    24    26 2   
    50    25    26 2   
    51    47    48 1   
@<TRIPOS>SUBSTRUCTURE
     1 JR5         1 TEMP              0 ****  ****    0 ROOT
