@<TRIPOS>MOLECULE
JR5
   48    51     1     0     0
SMALL
No Charge or Current Charge


@<TRIPOS>ATOM
      1 C01         -2.9860     1.0560    -3.1390 c3         1 JR5       0.074900
      2 C04         -4.2840    -0.2740    -0.1740 cc         1 JR5       0.237300
      3 C05         -3.1720     0.2860     0.3870 cc         1 JR5      -0.206300
      4 C06         -2.4380     0.8470    -0.5980 cd         1 JR5      -0.013400
      5 C08         -0.2110     1.8250    -1.2530 c          1 JR5       0.578100
      6 C10          0.9160     2.6080    -0.4600 c5         1 JR5       0.168500
      7 C11          1.7960     3.4380    -1.4340 c5         1 JR5      -0.078400
      8 C12          2.8480     2.4010    -1.9450 c5         1 JR5      -0.080400
      9 C13          2.7550     1.2150    -0.9380 c5         1 JR5       0.222800
     10 C18          1.8420    -0.8020     1.0410 ca         1 JR5      -0.311500
     11 C19          3.0830    -1.4690     1.1130 ca         1 JR5       0.023500
     12 C20          3.1900    -2.7940     0.6590 ca         1 JR5      -0.174500
     13 C21          2.0650    -3.4500     0.1390 ca         1 JR5       0.228000
     14 C23          0.8290    -2.7930     0.0690 ca         1 JR5      -0.174500
     15 C24          0.7120    -1.4680     0.5200 ca         1 JR5       0.023500
     16 C25         -3.0930     0.0990     1.8690 c5         1 JR5       0.014900
     17 C26         -4.5440    -0.3560     2.2520 c5         1 JR5      -0.082400
     18 C27         -5.1110    -0.9200     0.8960 c5         1 JR5      -0.099700
     19 F22          2.1730    -4.7250    -0.2960 f          1 JR5      -0.171000
     20 N02         -3.2190     0.5930    -1.7630 na         1 JR5       0.128800
     21 N03         -4.3930    -0.1320    -1.4730 nd         1 JR5      -0.488800
     22 N14          1.9870     1.7910     0.1850 n3         1 JR5      -0.780500
     23 O09         -0.2160     1.5440    -2.4440 o          1 JR5      -0.573100
     24 O16          0.3050     1.1480     1.9620 o          1 JR5      -0.544000
     25 O17          2.8030     1.2310     2.5240 o          1 JR5      -0.544000
     26 S15          1.7070     0.9000     1.6080 sy         1 JR5       1.200600
     27 H1          -2.2270     0.4240    -3.6140 h1         1 JR5       0.056700
     28 H2          -3.9160     0.9910    -3.7160 h1         1 JR5       0.056700
     29 H3          -2.6510     2.0990    -3.1250 h1         1 JR5       0.056700
     30 H4           0.4210     3.2760     0.2600 h1         1 JR5       0.079700
     31 H5           1.2220     3.9010    -2.2450 hc         1 JR5       0.059700
     32 H6           2.2940     4.2520    -0.8940 hc         1 JR5       0.059700
     33 H7           2.6290     2.0630    -2.9640 hc         1 JR5       0.059200
     34 H8           3.8530     2.8350    -1.9610 hc         1 JR5       0.059200
     35 H9           2.2320     0.3600    -1.3890 h1         1 JR5       0.060700
     36 H10          3.7510     0.8720    -0.6270 h1         1 JR5       0.060700
     37 H11          3.9630    -0.9660     1.5130 ha         1 JR5       0.136000
     38 H12          4.1430    -3.3130     0.7100 ha         1 JR5       0.137000
     39 H13         -0.0370    -3.3100    -0.3340 ha         1 JR5       0.137000
     40 H14         -0.2530    -0.9690     0.4620 ha         1 JR5       0.136000
     41 H15         -2.3530    -0.6700     2.1220 hc         1 JR5       0.053200
     42 H16         -2.7990     1.0180     2.3890 hc         1 JR5       0.053200
     43 H17         -4.5590    -1.0940     3.0610 hc         1 JR5       0.044700
     44 H18         -5.1360     0.5040     2.5850 hc         1 JR5       0.044700
     45 H19         -6.1770    -0.6970     0.7760 hc         1 JR5       0.058200
     46 H20         -5.0030    -2.0100     0.8460 hc         1 JR5       0.058200
     47 H21         -0.9790     1.6760     0.5930 hn         1 JR5       0.341500
     48 N07         -1.2320     1.4990    -0.3760 ns         1 JR5      -0.388100
@<TRIPOS>BOND
     1     1    20 1   
     2     1    27 1   
     3     1    28 1   
     4     1    29 1   
     5     2     3 1   
     6     2    18 1   
     7     2    21 2   
     8     3     4 2   
     9     3    16 1   
    10     4    20 1   
    11     4    48 1   
    12     5     6 1   
    13     5    23 2   
    14     5    48 1   
    15     6     7 1   
    16     6    22 1   
    17     6    30 1   
    18     7     8 1   
    19     7    31 1   
    20     7    32 1   
    21     8     9 1   
    22     8    33 1   
    23     8    34 1   
    24     9    22 1   
    25     9    35 1   
    26     9    36 1   
    27    10    11 ar  
    28    10    15 ar  
    29    10    26 1   
    30    11    12 ar  
    31    11    37 1   
    32    12    13 ar  
    33    12    38 1   
    34    13    14 ar  
    35    13    19 1   
    36    14    15 ar  
    37    14    39 1   
    38    15    40 1   
    39    16    17 1   
    40    16    41 1   
    41    16    42 1   
    42    17    18 1   
    43    17    43 1   
    44    17    44 1   
    45    18    45 1   
    46    18    46 1   
    47    20    21 1   
    48    22    26 1   
    49    24    26 2   
    50    25    26 2   
    51    47    48 1   
@<TRIPOS>SUBSTRUCTURE
     1 JR5         1 TEMP              0 ****  ****    0 ROOT
