@<TRIPOS>MOLECULE
JR6
   41    43     1     0     0
SMALL
bcc


@<TRIPOS>ATOM
      1 C01          7.7410     1.5930     0.1450 c3         1 JR6       0.123700
      2 C03          5.6830     0.4380     0.3860 ca         1 JR6       0.167100
      3 C04          4.8990    -0.4360     1.1460 ca         1 JR6      -0.206500
      4 C05          3.6450    -0.8080     0.7030 ca         1 JR6      -0.045000
      5 C06          3.1360    -0.3080    -0.4960 ca         1 JR6      -0.063100
      6 C08          0.5040     0.2750    -0.0680 c3         1 JR6      -0.109300
      7 C09         -0.9470     0.0010    -0.3900 c          1 JR6       0.689100
      8 C12         -3.1990     0.5260     0.3110 cc         1 JR6       0.055300
      9 C13         -4.0080    -0.5670     0.1270 cd         1 JR6      -0.261600
     10 C14         -4.0230    -2.0390    -0.1070 c5         1 JR6       0.017900
     11 C15         -5.5090    -2.3820     0.1880 c5         1 JR6      -0.082400
     12 C16         -6.3380    -1.0930    -0.0400 c5         1 JR6      -0.100700
     13 C17         -5.2990    -0.0390     0.1670 cd         1 JR6       0.309600
     14 C21          3.9170     0.5600    -1.2450 ca         1 JR6      -0.045000
     15 C22          5.1860     0.9340    -0.8180 ca         1 JR6      -0.206500
     16 N11         -1.8210     0.6750     0.4010 ns         1 JR6      -0.473100
     17 N18         -5.3190     1.2610     0.3660 nc         1 JR6      -0.495800
     18 N19         -4.0230     1.6010     0.4330 na         1 JR6       0.077400
     19 O02          6.8920     0.7390     0.8870 os         1 JR6      -0.314900
     20 O10         -1.2910    -0.7490    -1.2800 o          1 JR6      -0.540100
     21 S07          1.5430    -0.8120    -1.0840 ss         1 JR6      -0.197000
     22 H1           7.9810     1.1740    -0.8360 h1         1 JR6       0.043700
     23 H2           7.3050     2.5850     0.0090 h1         1 JR6       0.043700
     24 H3           8.6590     1.6900     0.7190 h1         1 JR6       0.043700
     25 H4           5.2870    -0.8260     2.0780 ha         1 JR6       0.144000
     26 H5           3.0550    -1.4950     1.2960 ha         1 JR6       0.143000
     27 H6           0.7370     1.3220    -0.2760 h1         1 JR6       0.077200
     28 H7           0.6940     0.0990     0.9920 h1         1 JR6       0.077200
     29 H8          -3.7540    -2.2750    -1.1390 hc         1 JR6       0.057200
     30 H9          -3.3430    -2.6020     0.5340 hc         1 JR6       0.057200
     31 H10         -5.8680    -3.2160    -0.4140 hc         1 JR6       0.043200
     32 H11         -5.6010    -2.6780     1.2350 hc         1 JR6       0.043200
     33 H12         -6.7390    -1.0510    -1.0560 hc         1 JR6       0.058200
     34 H13         -7.1850    -1.0210     0.6430 hc         1 JR6       0.058200
     35 H14         -2.7580     3.2350     0.1440 h1         1 JR6       0.053700
     36 H15         -4.4560     3.6140     0.4410 h1         1 JR6       0.053700
     37 H16         -3.4220     3.1020     1.7840 h1         1 JR6       0.053700
     38 H17          3.5390     0.9570    -2.1780 ha         1 JR6       0.143000
     39 H18          5.7620     1.6110    -1.4340 ha         1 JR6       0.144000
     40 H19         -1.4470     1.2520     1.1420 hn         1 JR6       0.323500
     41 C20         -3.6370     2.9590     0.7240 c3         1 JR6       0.041600
@<TRIPOS>BOND
     1     1    19 1   
     2     1    22 1   
     3     1    23 1   
     4     1    24 1   
     5     2     3 ar  
     6     2    15 ar  
     7     2    19 1   
     8     3     4 ar  
     9     3    25 1   
    10     4     5 ar  
    11     4    26 1   
    12     5    14 ar  
    13     5    21 1   
    14     6     7 1   
    15     6    21 1   
    16     6    27 1   
    17     6    28 1   
    18     7    16 1   
    19     7    20 2   
    20     8     9 2   
    21     8    16 1   
    22     8    18 1   
    23     9    10 1   
    24     9    13 1   
    25    10    11 1   
    26    10    29 1   
    27    10    30 1   
    28    11    12 1   
    29    11    31 1   
    30    11    32 1   
    31    12    13 1   
    32    12    33 1   
    33    12    34 1   
    34    13    17 2   
    35    14    15 ar  
    36    14    38 1   
    37    15    39 1   
    38    16    40 1   
    39    17    18 1   
    40    18    41 1   
    41    35    41 1   
    42    36    41 1   
    43    37    41 1   
@<TRIPOS>SUBSTRUCTURE
     1 JR6         1 TEMP              0 ****  ****    0 ROOT
