@<TRIPOS>MOLECULE
JR6
   41    43     1     0     0
SMALL
No Charge or Current Charge


@<TRIPOS>ATOM
      1 C01          7.9550     1.7440     0.1120 c3         1 JR6       0.146900
      2 C03          5.7170     0.7320     0.3550 ca         1 JR6       0.167100
      3 C04          4.8870    -0.1430     1.0710 ca         1 JR6      -0.188500
      4 C05          3.5470    -0.3310     0.6930 ca         1 JR6      -0.027000
      5 C06          3.0240     0.3670    -0.4170 ca         1 JR6      -0.190000
      6 C08          0.4920    -0.8640     0.3180 c3         1 JR6      -0.061400
      7 C09         -0.9960    -1.0470     0.0100 c          1 JR6       0.622100
      8 C12         -3.1350     0.3010     0.1100 cc         1 JR6       0.004600
      9 C13         -4.1910    -0.5570     0.0210 cd         1 JR6      -0.196300
     10 C14         -4.3140    -2.0370     0.0780 c5         1 JR6       0.017900
     11 C15         -5.8940    -2.1600     0.3110 c5         1 JR6      -0.082400
     12 C16         -6.5500    -0.7280    -0.0020 c5         1 JR6      -0.100700
     13 C17         -5.3440     0.1390    -0.0040 cd         1 JR6       0.244300
     14 C21          3.8570     1.2430    -1.1360 ca         1 JR6      -0.027000
     15 C22          5.1970     1.4280    -0.7560 ca         1 JR6      -0.188500
     16 N11         -1.7590     0.0900     0.2220 ns         1 JR6      -0.406100
     17 N18         -5.1950     1.4430     0.0560 nc         1 JR6      -0.495800
     18 N19         -3.8010     1.5440     0.1230 na         1 JR6       0.098800
     19 O02          7.0240     0.8720     0.7780 os         1 JR6      -0.338100
     20 O10         -1.4390    -2.1060    -0.4070 o          1 JR6      -0.540100
     21 S07          1.3220     0.1810    -0.9650 ss         1 JR6      -0.118000
     22 H1           8.0930     1.4420    -0.9340 h1         1 JR6       0.043700
     23 H2           7.6030     2.7830     0.1360 h1         1 JR6       0.043700
     24 H3           8.9330     1.7050     0.6080 h1         1 JR6       0.043700
     25 H4           5.2870    -0.6820     1.9260 ha         1 JR6       0.126000
     26 H5           2.9360    -1.0200     1.2690 ha         1 JR6       0.125000
     27 H6           0.5890    -0.3900     1.3020 h1         1 JR6       0.077200
     28 H7           0.9610    -1.8550     0.3460 h1         1 JR6       0.077200
     29 H8          -4.0140    -2.5140    -0.8620 hc         1 JR6       0.057200
     30 H9          -3.7450    -2.4930     0.8960 hc         1 JR6       0.057200
     31 H10         -6.3350    -2.9530    -0.3020 hc         1 JR6       0.043200
     32 H11         -6.0910    -2.4360     1.3540 hc         1 JR6       0.043200
     33 H12         -7.0520    -0.7180    -0.9750 hc         1 JR6       0.058200
     34 H13         -7.2850    -0.4350     0.7560 hc         1 JR6       0.058200
     35 H14         -2.4010     2.9590    -0.5690 h1         1 JR6       0.053700
     36 H15         -3.9170     3.6560     0.0700 h1         1 JR6       0.053700
     37 H16         -2.7000     2.9850     1.1960 h1         1 JR6       0.053700
     38 H17          3.4630     1.7830    -1.9950 ha         1 JR6       0.125000
     39 H18          5.8110     2.1130    -1.3330 ha         1 JR6       0.126000
     40 H19         -1.1960     0.8950     0.4680 hn         1 JR6       0.323500
     41 C20         -3.1670     2.8680     0.2100 c3         1 JR6       0.070900
@<TRIPOS>BOND
     1     1    19 1   
     2     1    22 1   
     3     1    23 1   
     4     1    24 1   
     5     2     3 ar  
     6     2    15 ar  
     7     2    19 1   
     8     3     4 ar  
     9     3    25 1   
    10     4     5 ar  
    11     4    26 1   
    12     5    14 ar  
    13     5    21 1   
    14     6     7 1   
    15     6    21 1   
    16     6    27 1   
    17     6    28 1   
    18     7    16 1   
    19     7    20 2   
    20     8     9 2   
    21     8    16 1   
    22     8    18 1   
    23     9    10 1   
    24     9    13 1   
    25    10    11 1   
    26    10    29 1   
    27    10    30 1   
    28    11    12 1   
    29    11    31 1   
    30    11    32 1   
    31    12    13 1   
    32    12    33 1   
    33    12    34 1   
    34    13    17 2   
    35    14    15 ar  
    36    14    38 1   
    37    15    39 1   
    38    16    40 1   
    39    17    18 1   
    40    18    41 1   
    41    35    41 1   
    42    36    41 1   
    43    37    41 1   
@<TRIPOS>SUBSTRUCTURE
     1 JR6         1 TEMP              0 ****  ****    0 ROOT
