@<TRIPOS>MOLECULE
JR7
   28    29     1     0     0
SMALL
bcc


@<TRIPOS>ATOM
      1 C1          -5.3480    -1.4580    -0.1740 c3         1 JR7      -0.149400
      2 C3          -1.9280     0.0310    -0.0680 cc         1 JR7       0.540300
      3 C4           0.2010     0.5740    -0.0260 cd         1 JR7       0.435800
      4 C11         -0.3300     1.8260    -0.0590 cc         1 JR7      -0.245400
      5 O           -4.5760     0.8260    -0.1290 o          1 JR7      -0.568100
      6 C2          -4.3170    -0.3620    -0.1190 c          1 JR7       0.670100
      7 C           -6.7370    -0.9960     0.2320 c3         1 JR7      -0.079100
      8 N           -3.0230    -0.7940    -0.0810 ns         1 JR7      -0.542400
      9 S           -2.0480     1.7580    -0.0970 ss         1 JR7      -0.071300
     10 N1          -0.7250    -0.4370    -0.0310 nd         1 JR7      -0.711000
     11 C5           1.6280     0.2320     0.0170 ca         1 JR7      -0.114500
     12 C10          2.0300    -1.0970     0.1430 ca         1 JR7      -0.098500
     13 C9           3.3730    -1.4390     0.1890 ca         1 JR7      -0.128000
     14 C8           4.3290    -0.4400     0.1070 ca         1 JR7       0.032400
     15 CL           6.0100    -0.8550     0.1640 cl         1 JR7      -0.113400
     16 C7           3.9580     0.8910    -0.0200 ca         1 JR7      -0.128000
     17 C6           2.6140     1.2170    -0.0650 ca         1 JR7      -0.098500
     18 H3          -5.3590    -1.8390    -1.2000 hc         1 JR7       0.064200
     19 H4          -5.0210    -2.2940     0.4490 hc         1 JR7       0.064200
     20 H10          0.1790     2.7770    -0.0570 h4         1 JR7       0.178000
     21 H           -7.0960    -0.1910    -0.4060 hc         1 JR7       0.047033
     22 H2          -7.4390    -1.8240     0.1480 hc         1 JR7       0.047033
     23 H1          -6.7560    -0.6460     1.2630 hc         1 JR7       0.047033
     24 H5          -2.8260    -1.7850    -0.0650 hn         1 JR7       0.339500
     25 H9           1.2880    -1.8800     0.2070 ha         1 JR7       0.144000
     26 H8           3.6660    -2.4750     0.2890 ha         1 JR7       0.146500
     27 H7           4.7070     1.6670    -0.0850 ha         1 JR7       0.146500
     28 H6           2.3430     2.2600    -0.1700 ha         1 JR7       0.144000
@<TRIPOS>BOND
     1     1     6 1   
     2     1     7 1   
     3     1    18 1   
     4     1    19 1   
     5     2     8 1   
     6     2     9 1   
     7     2    10 2   
     8     3     4 2   
     9     3    10 1   
    10     3    11 1   
    11     4     9 1   
    12     4    20 1   
    13     5     6 2   
    14     6     8 1   
    15     7    21 1   
    16     7    22 1   
    17     7    23 1   
    18     8    24 1   
    19    11    12 ar  
    20    11    17 ar  
    21    12    13 ar  
    22    12    25 1   
    23    13    14 ar  
    24    13    26 1   
    25    14    15 1   
    26    14    16 ar  
    27    16    17 ar  
    28    16    27 1   
    29    17    28 1   
@<TRIPOS>SUBSTRUCTURE
     1 JR7         1 TEMP              0 ****  ****    0 ROOT
