@<TRIPOS>MOLECULE
JR7
   28    29     1     0     0
SMALL
No Charge or Current Charge


@<TRIPOS>ATOM
      1 C1          -5.4370    -1.3480    -0.5320 c3         1 JR7      -0.149400
      2 C3          -2.0380     0.2950    -0.3630 cc         1 JR7       0.540300
      3 C4           0.1470     0.6540    -0.1770 cd         1 JR7       0.370500
      4 C11         -0.2750     1.9480    -0.3880 cc         1 JR7      -0.307000
      5 O           -4.8300     0.9750    -0.7600 o          1 JR7      -0.568100
      6 C2          -4.4560    -0.1700    -0.5590 c          1 JR7       0.603100
      7 C           -6.2720    -1.3680     0.7680 c3         1 JR7      -0.079100
      8 N           -3.1420    -0.5130    -0.3750 ns         1 JR7      -0.475400
      9 S           -2.0000     2.0310    -0.5810 ss         1 JR7       0.073600
     10 N1          -0.8730    -0.2900    -0.1640 nd         1 JR7      -0.711000
     11 C5           1.5580     0.2410     0.0250 ca         1 JR7      -0.114500
     12 C10          1.8900    -1.1200     0.2350 ca         1 JR7      -0.080500
     13 C9           3.2270    -1.5130     0.4270 ca         1 JR7      -0.110000
     14 C8           4.2500    -0.5550     0.4130 ca         1 JR7       0.124000
     15 Cl           5.9210    -1.0480     0.6530 cl         1 JR7      -0.205000
     16 C7           3.9400     0.7970     0.2060 ca         1 JR7      -0.110000
     17 C6           2.6040     1.1940     0.0140 ca         1 JR7      -0.080500
     18 H3          -6.1260    -1.2510    -1.3790 hc         1 JR7       0.064200
     19 H4          -4.8940    -2.2980    -0.6050 hc         1 JR7       0.064200
     20 H10          0.3040     2.8580    -0.4440 h4         1 JR7       0.160000
     21 H           -6.8570    -0.4450     0.8700 hc         1 JR7       0.047033
     22 H2          -6.9680    -2.2150     0.7650 hc         1 JR7       0.047033
     23 H1          -5.6220    -1.4620     1.6460 hc         1 JR7       0.047033
     24 H5          -2.9680    -1.4950    -0.2270 hn         1 JR7       0.339500
     25 H9           1.1150    -1.8830     0.2520 ha         1 JR7       0.126000
     26 H8           3.4680    -2.5600     0.5880 ha         1 JR7       0.128500
     27 H7           4.7340     1.5380     0.1950 ha         1 JR7       0.128500
     28 H6           2.3970     2.2490    -0.1440 ha         1 JR7       0.126000
@<TRIPOS>BOND
     1     1     6 1   
     2     1     7 1   
     3     1    18 1   
     4     1    19 1   
     5     2     8 1   
     6     2     9 1   
     7     2    10 2   
     8     3     4 2   
     9     3    10 1   
    10     3    11 1   
    11     4     9 1   
    12     4    20 1   
    13     5     6 2   
    14     6     8 1   
    15     7    21 1   
    16     7    22 1   
    17     7    23 1   
    18     8    24 1   
    19    11    12 ar  
    20    11    17 ar  
    21    12    13 ar  
    22    12    25 1   
    23    13    14 ar  
    24    13    26 1   
    25    14    15 1   
    26    14    16 ar  
    27    16    17 ar  
    28    16    27 1   
    29    17    28 1   
@<TRIPOS>SUBSTRUCTURE
     1 JR7         1 TEMP              0 ****  ****    0 ROOT
