@<TRIPOS>MOLECULE
JR9
   47    51     1     0     0
SMALL
No Charge or Current Charge


@<TRIPOS>ATOM
      1 N01         -0.0130     4.7940    -2.4470 nc         1 JR9      -0.775000
      2 C02          1.3620     4.5800    -2.5640 cc         1 JR9       0.360900
      3 C03          2.0820     3.6010    -1.8770 cd         1 JR9      -0.241000
      4 N04          1.3230     2.7780    -1.0510 na         1 JR9       0.142100
      5 C05          0.0040     2.9790    -0.8720 cd         1 JR9      -0.172000
      6 C06         -0.6370     4.0000    -1.6170 cd         1 JR9       0.672900
      7 C07          1.7970     1.7940    -0.2110 cd         1 JR9       0.006900
      8 C08          0.6320     1.3840     0.4370 cc         1 JR9       0.079400
      9 N09         -0.4640     2.1250     0.0270 nc         1 JR9      -0.267600
     10 N10         -1.9380     4.2530    -1.4990 nv         1 JR9      -1.049900
     11 N11          3.1250     1.3800    -0.1410 nu         1 JR9      -0.768200
     12 C12          3.8030     0.6620     0.9530 c3         1 JR9       0.233100
     13 C13          3.8270    -0.8510     0.7300 ca         1 JR9      -0.100300
     14 C14          4.1240    -1.3960    -0.5380 ca         1 JR9      -0.094000
     15 C15          4.1360    -2.7880    -0.7300 ca         1 JR9      -0.112500
     16 C16          3.8590    -3.6500     0.3440 ca         1 JR9      -0.103000
     17 C17          3.5790    -3.1170     1.6140 ca         1 JR9      -0.112500
     18 C18          3.5680    -1.7250     1.8070 ca         1 JR9      -0.094000
     19 C19          0.4140     0.2810     1.4450 c3         1 JR9       0.051100
     20 C20         -0.3920    -0.8870     0.8730 ca         1 JR9      -0.043300
     21 C21         -1.7930    -1.0370     1.1010 ca         1 JR9      -0.006900
     22 C22         -2.4940    -2.1320     0.5490 ca         1 JR9      -0.079000
     23 C23         -1.7810    -3.0570    -0.2200 ca         1 JR9       0.051100
     24 C24         -0.4440    -2.9150    -0.4500 ca         1 JR9       0.060100
     25 C25          0.2820    -1.8420     0.0750 ca         1 JR9      -0.096000
     26 O26         -2.2990    -4.1520    -0.8310 os         1 JR9      -0.341100
     27 C27         -1.1100    -4.7800    -1.4310 c5         1 JR9       0.373600
     28 O28          0.0550    -3.9020    -1.2370 os         1 JR9      -0.342100
     29 Br          -2.7990     0.2280     2.1380 br         1 JR9      -0.086100
     30 H1           1.8540     5.2610    -3.2450 h4         1 JR9       0.029100
     31 H2           3.1470     3.4440    -1.9560 h4         1 JR9       0.149000
     32 H3          -2.2150     5.1740    -1.8140 hn         1 JR9       0.500000
     33 H4          -2.3810     3.9130    -0.6540 hn         1 JR9       0.500000
     34 H5           4.8410     1.0140     1.0240 h1         1 JR9       0.043700
     35 H6           4.3400    -0.7410    -1.3790 ha         1 JR9       0.114500
     36 H7           4.3580    -3.1990    -1.7120 ha         1 JR9       0.114000
     37 H8           3.8650    -4.7270     0.1950 ha         1 JR9       0.114000
     38 H9           3.3700    -3.7830     2.4480 ha         1 JR9       0.114000
     39 H10          3.3530    -1.3260     2.7960 ha         1 JR9       0.114500
     40 H11          1.3680    -0.0970     1.8100 hc         1 JR9       0.071200
     41 H12         -0.0610     0.7000     2.3380 hc         1 JR9       0.071200
     42 H13         -3.5610    -2.2540     0.7130 ha         1 JR9       0.147000
     43 H14          1.3430    -1.7490    -0.1360 ha         1 JR9       0.146000
     44 H15         -0.9230    -5.7380    -0.9310 h2         1 JR9       0.065700
     45 H16         -1.2780    -4.9410    -2.5020 h2         1 JR9       0.065700
     46 H17          3.7460     1.7950    -0.8380 hn         1 JR9       0.453000
     47 H18          3.3260     0.8990     1.9130 h1         1 JR9       0.043700
@<TRIPOS>BOND
     1     1     2 1   
     2     1     6 2   
     3     2     3 2   
     4     2    30 1   
     5     3     4 1   
     6     3    31 1   
     7     4     5 1   
     8     4     7 1   
     9     5     6 1   
    10     5     9 2   
    11     6    10 1   
    12     7     8 2   
    13     7    11 1   
    14     8     9 1   
    15     8    19 1   
    16    10    32 1   
    17    10    33 1   
    18    11    12 1   
    19    11    46 1   
    20    12    13 1   
    21    12    34 1   
    22    12    47 1   
    23    13    14 ar  
    24    13    18 ar  
    25    14    15 ar  
    26    14    35 1   
    27    15    16 ar  
    28    15    36 1   
    29    16    17 ar  
    30    16    37 1   
    31    17    18 ar  
    32    17    38 1   
    33    18    39 1   
    34    19    20 1   
    35    19    40 1   
    36    19    41 1   
    37    20    21 ar  
    38    20    25 ar  
    39    21    22 ar  
    40    21    29 1   
    41    22    23 ar  
    42    22    42 1   
    43    23    24 ar  
    44    23    26 1   
    45    24    25 ar  
    46    24    28 1   
    47    25    43 1   
    48    26    27 1   
    49    27    28 1   
    50    27    44 1   
    51    27    45 1   
@<TRIPOS>SUBSTRUCTURE
     1 JR9         1 TEMP              0 ****  ****    0 ROOT
