@<TRIPOS>MOLECULE
JR9
   47    51     1     0     0
SMALL
bcc


@<TRIPOS>ATOM
      1 N01          0.5240     4.6820    -2.1300 nc         1 JR9      -0.775000
      2 C02          1.6160     3.9660    -2.5100 cc         1 JR9       0.426200
      3 C03          1.9810     2.7760    -1.9790 cd         1 JR9      -0.273600
      4 N04          1.1790     2.2730    -0.9810 na         1 JR9       0.040700
      5 C05          0.0650     2.9420    -0.5640 cd         1 JR9      -0.186600
      6 C06         -0.2430     4.1910    -1.1890 cd         1 JR9       0.738200
      7 C07          1.2460     1.1190    -0.2370 cd         1 JR9       0.006900
      8 C08          0.1510     1.1720     0.6020 cc         1 JR9       0.079400
      9 N09         -0.5710     2.2950     0.3940 nc         1 JR9      -0.267600
     10 N10         -1.3630     4.8310    -0.8050 nv         1 JR9      -0.939500
     11 N11          2.2410     0.1590    -0.3300 nu         1 JR9      -0.713000
     12 C12          3.5530     0.4960     0.2120 c3         1 JR9       0.233100
     13 C13          4.3910    -0.7440     0.3750 ca         1 JR9      -0.100300
     14 C14          5.6500    -0.8360    -0.2080 ca         1 JR9      -0.112000
     15 C15          6.4270    -1.9780    -0.0430 ca         1 JR9      -0.130500
     16 C16          5.9480    -3.0420     0.7060 ca         1 JR9      -0.121000
     17 C17          4.6880    -2.9600     1.2900 ca         1 JR9      -0.130500
     18 C18          3.9160    -1.8210     1.1230 ca         1 JR9      -0.112000
     19 C19         -0.2350     0.1200     1.5900 c3         1 JR9       0.051100
     20 C20         -1.1430    -0.9140     0.9660 ca         1 JR9      -0.043300
     21 C21         -2.5300    -0.8820     1.0280 ca         1 JR9      -0.006900
     22 C22         -3.3440    -1.8430     0.4080 ca         1 JR9      -0.097000
     23 C23         -2.7030    -2.8360    -0.2830 ca         1 JR9       0.051100
     24 C24         -1.3210    -2.8880    -0.3670 ca         1 JR9       0.060100
     25 C25         -0.5280    -1.9530     0.2390 ca         1 JR9      -0.114000
     26 O26         -3.2370    -3.8850    -0.9470 os         1 JR9      -0.317900
     27 C27         -2.1550    -4.5230    -1.6180 c5         1 JR9       0.327200
     28 O28         -0.9560    -3.9730    -1.0880 os         1 JR9      -0.318900
     29 BR          -3.4320     0.4950     1.9640 br         1 JR9      -0.086100
     30 H1           2.2210     4.3980    -3.2950 h4         1 JR9       0.029100
     31 H2           2.8430     2.2060    -2.2860 h4         1 JR9       0.167000
     32 H3          -1.4900     5.7870    -1.0920 hn         1 JR9       0.444800
     33 H4          -1.8180     4.5490     0.0460 hn         1 JR9       0.444800
     34 H5           4.0990     1.2260    -0.3970 h1         1 JR9       0.043700
     35 H6           6.0290    -0.0110    -0.7990 ha         1 JR9       0.132500
     36 H7           7.4050    -2.0340    -0.5040 ha         1 JR9       0.132000
     37 H8           6.5510    -3.9320     0.8350 ha         1 JR9       0.132000
     38 H9           4.3070    -3.7870     1.8760 ha         1 JR9       0.132000
     39 H10          2.9350    -1.7640     1.5780 ha         1 JR9       0.132500
     40 H11          0.6670    -0.3820     1.9410 hc         1 JR9       0.071200
     41 H12         -0.6920     0.5840     2.4620 hc         1 JR9       0.071200
     42 H13         -4.4230    -1.8080     0.4730 ha         1 JR9       0.165000
     43 H14          0.5520    -1.9900     0.1630 ha         1 JR9       0.164000
     44 H15         -2.1850    -5.5960    -1.4270 h2         1 JR9       0.065700
     45 H16         -2.2140    -4.3210    -2.6920 h2         1 JR9       0.065700
     46 H17          2.3030    -0.2740    -1.2430 hn         1 JR9       0.397800
     47 H18          3.3930     0.9610     1.1880 h1         1 JR9       0.043700
@<TRIPOS>BOND
     1     1     2 1   
     2     1     6 2   
     3     2     3 2   
     4     2    30 1   
     5     3     4 1   
     6     3    31 1   
     7     4     5 1   
     8     4     7 1   
     9     5     6 1   
    10     5     9 2   
    11     6    10 1   
    12     7     8 2   
    13     7    11 1   
    14     8     9 1   
    15     8    19 1   
    16    10    32 1   
    17    10    33 1   
    18    11    12 1   
    19    11    46 1   
    20    12    13 1   
    21    12    34 1   
    22    12    47 1   
    23    13    14 ar  
    24    13    18 ar  
    25    14    15 ar  
    26    14    35 1   
    27    15    16 ar  
    28    15    36 1   
    29    16    17 ar  
    30    16    37 1   
    31    17    18 ar  
    32    17    38 1   
    33    18    39 1   
    34    19    20 1   
    35    19    40 1   
    36    19    41 1   
    37    20    21 ar  
    38    20    25 ar  
    39    21    22 ar  
    40    21    29 1   
    41    22    23 ar  
    42    22    42 1   
    43    23    24 ar  
    44    23    26 1   
    45    24    25 ar  
    46    24    28 1   
    47    25    43 1   
    48    26    27 1   
    49    27    28 1   
    50    27    44 1   
    51    27    45 1   
@<TRIPOS>SUBSTRUCTURE
     1 JR9         1 TEMP              0 ****  ****    0 ROOT
