@<TRIPOS>MOLECULE
JRA
   77    80     1     0     0
SMALL
bcc


@<TRIPOS>ATOM
      1 CHA          2.3410     0.2290    -0.6960 ce         1 JRA       0.069800
      2 NA           0.5500    -1.3730    -0.3680 na         1 JRA      -0.135100
      3 C1A          1.8530    -1.1000    -0.6530 cc         1 JRA      -0.116100
      4 C2A          2.5080    -2.3250    -0.8460 cd         1 JRA      -0.053300
      5 C3A          1.5460    -3.3350    -0.6880 cd         1 JRA      -0.128300
      6 C4A          0.3270    -2.7110    -0.3850 cc         1 JRA      -0.107100
      7 CMA          1.7840    -4.8050    -0.7670 c3         1 JRA      -0.012800
      8 CAA          3.9660    -2.5190    -1.1020 c3         1 JRA      -0.008100
      9 CBA          4.7410    -2.8010     0.1840 c3         1 JRA      -0.203400
     10 CGA          6.2490    -3.0510     0.0030 c          1 JRA       0.932600
     11 O1A          6.7030    -3.0610    -1.1580 o          1 JRA      -0.845800
     12 O2A          6.8990    -3.2290     1.0540 o          1 JRA      -0.845800
     13 CHB         -0.9510    -3.2940    -0.1280 ce         1 JRA      -0.045200
     14 NB          -2.0090    -1.4600     1.1060 ns         1 JRA      -0.474100
     15 C1B         -2.0000    -2.7000     0.4870 cd         1 JRA      -0.022400
     16 C2B         -3.3530    -3.2170     0.5810 cd         1 JRA      -0.006200
     17 C3B         -4.1210    -2.3030     1.2310 cc         1 JRA      -0.180200
     18 C4B         -3.2460    -1.1790     1.6320 c          1 JRA       0.700700
     19 CMB         -3.7600    -4.5130    -0.0220 c3         1 JRA      -0.045900
     20 CAB         -5.5450    -2.3820     1.4790 ce         1 JRA      -0.089000
     21 CBB         -6.3140    -1.4660     2.0750 c2         1 JRA      -0.221000
     22 OB          -3.5070    -0.1920     2.2950 o          1 JRA      -0.630500
     23 NC          -2.5790     1.0220    -0.9750 ns         1 JRA      -0.468100
     24 C1C         -3.8100     0.4550    -1.1680 c          1 JRA       0.709500
     25 C2C         -4.8300     1.3970    -0.5620 c5         1 JRA      -0.155700
     26 C3C         -4.0560     2.7280    -0.4110 c5         1 JRA      -0.000300
     27 C4C         -2.6090     2.2870    -0.4620 c2         1 JRA       0.041400
     28 CAC         -4.3090     3.6970    -1.5280 c2         1 JRA      -0.144200
     29 CBC         -4.7940     4.9200    -1.3520 c2         1 JRA      -0.231000
     30 ND           0.1990     1.3470    -0.4600 nd         1 JRA      -0.679300
     31 C1D         -0.1650     2.6010    -0.2700 cc         1 JRA       0.501900
     32 C2D          0.9840     3.4960    -0.2270 cc         1 JRA      -0.287800
     33 C3D          2.0790     2.7150    -0.4320 cd         1 JRA      -0.013200
     34 C4D          1.5800     1.3560    -0.5570 cd         1 JRA       0.019600
     35 CGD          5.6660     3.3050     0.9920 c          1 JRA       0.931600
     36 O1D          6.2260     3.1070     2.0900 o          1 JRA      -0.843300
     37 O2D          6.1920     3.7850    -0.0310 o          1 JRA      -0.843300
     38 H1           3.4100     0.3520    -0.8240 ha         1 JRA       0.182000
     39 H3          -0.1180    -0.6140    -0.3100 hn         1 JRA       0.332700
     40 H4           2.1290    -5.2110     0.1870 hc         1 JRA       0.034367
     41 H5           0.8820    -5.3510    -1.0420 hc         1 JRA       0.034367
     42 H6           2.5480    -5.0400    -1.5080 hc         1 JRA       0.034367
     43 H7           4.1070    -3.3470    -1.8010 hc         1 JRA       0.053200
     44 H8           4.3810    -1.6390    -1.5960 hc         1 JRA       0.053200
     45 H9           4.6060    -1.9690     0.8830 hc         1 JRA       0.024200
     46 H10          4.3080    -3.6710     0.6900 hc         1 JRA       0.024200
     47 H12         -1.0980    -4.3110    -0.4710 ha         1 JRA       0.139000
     48 H14         -3.1820    -5.3380     0.3970 hc         1 JRA       0.046700
     49 H15         -4.8120    -4.7270     0.1440 hc         1 JRA       0.046700
     50 H16         -3.5870    -4.5120    -1.0990 hc         1 JRA       0.046700
     51 H17         -6.0260    -3.2880     1.1250 ha         1 JRA       0.105000
     52 H18         -5.9310    -0.5340     2.4620 ha         1 JRA       0.115000
     53 H19         -7.3740    -1.6450     2.1900 ha         1 JRA       0.115000
     54 H20         -1.7010     0.5760    -1.2090 hn         1 JRA       0.365500
     55 H21         -5.0190     1.0120     0.4460 hc         1 JRA       0.094700
     56 H22         -4.2810     3.2070     0.5420 hc         1 JRA       0.074700
     57 H27         -4.0620     3.3550    -2.5290 ha         1 JRA       0.126000
     58 H28         -5.0480     5.2930    -0.3670 ha         1 JRA       0.107500
     59 H29         -4.9540     5.5890    -2.1870 ha         1 JRA       0.107500
     60 H36          4.0570     2.5290    -1.1940 hc         1 JRA       0.055200
     61 H37          3.6090     4.1540    -0.7490 hc         1 JRA       0.055200
     62 H38          3.6340     3.5040     1.6730 hc         1 JRA       0.024700
     63 H39          4.0710     1.8790     1.2440 hc         1 JRA       0.024700
     64 H2          -1.1850    -0.9920     1.4520 hn         1 JRA       0.349500
     65 CMD          0.9140     4.9690    -0.0130 c3         1 JRA      -0.010900
     66 CHD         -1.5290     3.0360    -0.1550 ce         1 JRA      -0.258600
     67 CMC         -6.1470     1.4410    -1.3130 c3         1 JRA      -0.066100
     68 H24         -6.6090     0.4540    -1.3200 hc         1 JRA       0.036367
     69 H25         -6.8390     2.1280    -0.8270 hc         1 JRA       0.036367
     70 H26         -6.0240     1.7630    -2.3460 hc         1 JRA       0.036367
     71 H30         -1.7120     4.0560     0.1590 ha         1 JRA       0.137000
     72 H33          0.2440     5.4490    -0.7290 hc         1 JRA       0.029367
     73 H34          0.5420     5.2150     0.9840 hc         1 JRA       0.029367
     74 H35          1.8940     5.4330    -0.1180 hc         1 JRA       0.029367
     75 CAD          3.5160     3.1100    -0.4440 c3         1 JRA      -0.022200
     76 OC          -4.0060    -0.6090    -1.7060 o          1 JRA      -0.614500
     77 CBD          4.1770     2.9200     0.9220 c3         1 JRA      -0.203400
@<TRIPOS>BOND
     1     1     3 1   
     2     1    34 2   
     3     1    38 1   
     4     2     3 1   
     5     2     6 1   
     6     2    39 1   
     7     3     4 2   
     8     4     5 1   
     9     4     8 1   
    10     5     6 2   
    11     5     7 1   
    12     6    13 1   
    13     7    40 1   
    14     7    41 1   
    15     7    42 1   
    16     8     9 1   
    17     8    43 1   
    18     8    44 1   
    19     9    10 1   
    20     9    45 1   
    21     9    46 1   
    22    10    11 1   
    23    10    12 1   
    24    13    15 2   
    25    13    47 1   
    26    14    15 1   
    27    14    18 1   
    28    14    64 1   
    29    15    16 1   
    30    16    17 2   
    31    16    19 1   
    32    17    18 1   
    33    17    20 1   
    34    18    22 2   
    35    19    48 1   
    36    19    49 1   
    37    19    50 1   
    38    20    21 2   
    39    20    51 1   
    40    21    52 1   
    41    21    53 1   
    42    23    24 1   
    43    23    27 1   
    44    23    54 1   
    45    24    25 1   
    46    24    76 2   
    47    25    26 1   
    48    25    55 1   
    49    25    67 1   
    50    26    27 1   
    51    26    28 1   
    52    26    56 1   
    53    27    66 2   
    54    28    29 2   
    55    28    57 1   
    56    29    58 1   
    57    29    59 1   
    58    30    31 2   
    59    30    34 1   
    60    31    32 1   
    61    31    66 1   
    62    32    33 2   
    63    32    65 1   
    64    33    34 1   
    65    33    75 1   
    66    35    36 1   
    67    35    37 1   
    68    35    77 1   
    69    60    75 1   
    70    61    75 1   
    71    62    77 1   
    72    63    77 1   
    73    65    72 1   
    74    65    73 1   
    75    65    74 1   
    76    66    71 1   
    77    67    68 1   
    78    67    69 1   
    79    67    70 1   
    80    75    77 1   
@<TRIPOS>SUBSTRUCTURE
     1 JRA         1 TEMP              0 ****  ****    0 ROOT
