@<TRIPOS>MOLECULE
JRA
   77    80     1     0     0
SMALL
No Charge or Current Charge


@<TRIPOS>ATOM
      1 CHA          2.2550     0.1970    -0.7570 ce         1 JRA       0.019800
      2 NA           0.5150    -1.5040    -0.2230 na         1 JRA      -0.084000
      3 C1A          1.8120    -1.1880    -0.5900 cc         1 JRA      -0.166800
      4 C2A          2.4660    -2.3860    -0.7290 cd         1 JRA      -0.053300
      5 C3A          1.5450    -3.4330    -0.4350 cd         1 JRA      -0.128300
      6 C4A          0.3280    -2.8770    -0.1230 cc         1 JRA      -0.157800
      7 CMA          1.8610    -4.9100    -0.4690 c3         1 JRA      -0.012800
      8 CAA          3.9090    -2.5740    -1.1430 c3         1 JRA      -0.008100
      9 CBA          4.8760    -2.6080     0.0620 c3         1 JRA      -0.203400
     10 CGA          6.3030    -2.9080    -0.4240 c          1 JRA       0.722000
     11 O1A          6.6490    -4.0770    -0.5070 o          1 JRA      -0.740500
     12 O2A          7.0080    -1.9690    -0.7590 o          1 JRA      -0.740500
     13 CHB         -0.9350    -3.5150     0.2440 ce         1 JRA      -0.095200
     14 NB          -2.3820    -1.7590     1.2230 ns         1 JRA      -0.407100
     15 C1B         -2.1110    -3.0250     0.7730 cd         1 JRA      -0.022400
     16 C2B         -3.3340    -3.7750     0.9260 cd         1 JRA      -0.006200
     17 C3B         -4.2750    -2.9030     1.4570 cc         1 JRA      -0.180200
     18 C4B         -3.6510    -1.5800     1.6630 c          1 JRA       0.558200
     19 CMB         -3.5450    -5.2240     0.5590 c3         1 JRA      -0.045900
     20 CAB         -5.6650    -3.1830     1.8110 ce         1 JRA      -0.139000
     21 CBB         -6.7130    -2.4000     1.4800 c2         1 JRA      -0.321000
     22 OB          -4.1150    -0.5510     2.1330 o          1 JRA      -0.555000
     23 NC          -2.7850     1.2280    -1.0300 ns         1 JRA      -0.401100
     24 C1C         -4.0540     0.7800    -1.2120 c          1 JRA       0.567000
     25 C2C         -4.9430     2.0270    -0.9630 c5         1 JRA      -0.155700
     26 C3C         -3.9820     3.1050    -0.2990 c5         1 JRA      -0.000300
     27 C4C         -2.6120     2.5040    -0.5480 c2         1 JRA       0.041400
     28 CAC         -4.1690     4.4870    -0.9270 c2         1 JRA      -0.194200
     29 CBC         -5.0080     5.3680    -0.3570 c2         1 JRA      -0.331000
     30 ND           0.1530     1.3960    -0.5740 nd         1 JRA      -0.679300
     31 C1D         -0.1030     2.6860    -0.4040 cc         1 JRA       0.501900
     32 C2D          1.0590     3.5130    -0.3500 cc         1 JRA      -0.287800
     33 C3D          2.1330     2.6780    -0.5050 cd         1 JRA      -0.013200
     34 C4D          1.5410     1.3760    -0.6270 cd         1 JRA       0.019600
     35 CGD          5.7200     3.3950     0.8070 c          1 JRA       0.721000
     36 O1D          6.5810     2.5800     0.5160 o          1 JRA      -0.738000
     37 O2D          5.9480     4.5800     0.9990 o          1 JRA      -0.738000
     38 H1           3.3350     0.3110    -0.8220 ha         1 JRA       0.232000
     39 H3          -0.1960    -0.7950    -0.0890 hn         1 JRA       0.383000
     40 H4           1.2490    -5.4660     0.2510 hc         1 JRA       0.034367
     41 H5           1.6720    -5.3270    -1.4650 hc         1 JRA       0.034367
     42 H6           2.9090    -5.1060    -0.2160 hc         1 JRA       0.034367
     43 H7           4.0120    -3.5040    -1.7160 hc         1 JRA       0.053200
     44 H8           4.2110    -1.7720    -1.8270 hc         1 JRA       0.053200
     45 H9           4.8230    -1.6110     0.5170 hc         1 JRA       0.024200
     46 H10          4.5180    -3.4110     0.7180 hc         1 JRA       0.024200
     47 H12         -0.9700    -4.5730    -0.0120 ha         1 JRA       0.189000
     48 H14         -2.9320    -5.8800     1.1870 hc         1 JRA       0.046700
     49 H15         -4.5910    -5.5260     0.6830 hc         1 JRA       0.046700
     50 H16         -3.2740    -5.4060    -0.4880 hc         1 JRA       0.046700
     51 H17         -5.8360    -4.1430     2.3030 ha         1 JRA       0.155000
     52 H18         -6.5790    -1.4590     0.9460 ha         1 JRA       0.165000
     53 H19         -7.7360    -2.6800     1.7320 ha         1 JRA       0.165000
     54 H20         -2.0000     0.6050    -1.1640 hn         1 JRA       0.365500
     55 H21         -5.7600     1.7270    -0.2970 hc         1 JRA       0.094700
     56 H22         -4.1590     3.1460     0.7830 hc         1 JRA       0.074700
     57 H27         -3.6190     4.7580    -1.8310 ha         1 JRA       0.176000
     58 H28         -5.5730     5.1300     0.5460 ha         1 JRA       0.157500
     59 H29         -5.1610     6.3620    -0.7800 ha         1 JRA       0.157500
     60 H36          4.1430     2.4200    -1.2420 hc         1 JRA       0.055200
     61 H37          3.7250     4.0730    -0.8860 hc         1 JRA       0.055200
     62 H38          3.6760     3.5630     1.5370 hc         1 JRA       0.024700
     63 H39          4.2120     1.8540     1.1310 hc         1 JRA       0.024700
     64 H2          -1.7130    -1.0090     1.3220 hn         1 JRA       0.349500
     65 CMD          1.0320     5.0100    -0.1540 c3         1 JRA      -0.010900
     66 CHD         -1.4730     3.1790    -0.2790 ce         1 JRA      -0.308600
     67 CMC         -5.6230     2.4380    -2.2970 c3         1 JRA      -0.066100
     68 H24         -6.2120     1.6090    -2.7090 hc         1 JRA       0.036367
     69 H25         -6.3080     3.2830    -2.1550 hc         1 JRA       0.036367
     70 H26         -4.8810     2.7240    -3.0540 hc         1 JRA       0.036367
     71 H30         -1.5410     4.1970     0.0930 ha         1 JRA       0.187000
     72 H33          0.4770     5.4990    -0.9630 hc         1 JRA       0.029367
     73 H34          0.5470     5.2690     0.7950 hc         1 JRA       0.029367
     74 H35          2.0390     5.4400    -0.1330 hc         1 JRA       0.029367
     75 CAD          3.6020     3.0460    -0.5230 c3         1 JRA      -0.022200
     76 OC          -4.3670    -0.3840    -1.4090 o          1 JRA      -0.539000
     77 CBD          4.2600     2.9180     0.8700 c3         1 JRA      -0.203400
@<TRIPOS>BOND
     1     1     3 1   
     2     1    34 2   
     3     1    38 1   
     4     2     3 1   
     5     2     6 1   
     6     2    39 1   
     7     3     4 2   
     8     4     5 1   
     9     4     8 1   
    10     5     6 2   
    11     5     7 1   
    12     6    13 1   
    13     7    40 1   
    14     7    41 1   
    15     7    42 1   
    16     8     9 1   
    17     8    43 1   
    18     8    44 1   
    19     9    10 1   
    20     9    45 1   
    21     9    46 1   
    22    10    11 1   
    23    10    12 1   
    24    13    15 2   
    25    13    47 1   
    26    14    15 1   
    27    14    18 1   
    28    14    64 1   
    29    15    16 1   
    30    16    17 2   
    31    16    19 1   
    32    17    18 1   
    33    17    20 1   
    34    18    22 2   
    35    19    48 1   
    36    19    49 1   
    37    19    50 1   
    38    20    21 2   
    39    20    51 1   
    40    21    52 1   
    41    21    53 1   
    42    23    24 1   
    43    23    27 1   
    44    23    54 1   
    45    24    25 1   
    46    24    76 2   
    47    25    26 1   
    48    25    55 1   
    49    25    67 1   
    50    26    27 1   
    51    26    28 1   
    52    26    56 1   
    53    27    66 2   
    54    28    29 2   
    55    28    57 1   
    56    29    58 1   
    57    29    59 1   
    58    30    31 2   
    59    30    34 1   
    60    31    32 1   
    61    31    66 1   
    62    32    33 2   
    63    32    65 1   
    64    33    34 1   
    65    33    75 1   
    66    35    36 1   
    67    35    37 1   
    68    35    77 1   
    69    60    75 1   
    70    61    75 1   
    71    62    77 1   
    72    63    77 1   
    73    65    72 1   
    74    65    73 1   
    75    65    74 1   
    76    66    71 1   
    77    67    68 1   
    78    67    69 1   
    79    67    70 1   
    80    75    77 1   
@<TRIPOS>SUBSTRUCTURE
     1 JRA         1 TEMP              0 ****  ****    0 ROOT
