@<TRIPOS>MOLECULE
JRB
   28    29     1     0     0
SMALL
No Charge or Current Charge


@<TRIPOS>ATOM
      1 CAH         -1.5030    -0.7370    -1.1520 c6         1 JRB       0.181800
      2 CAF         -2.9340    -0.1090    -1.2680 c6         1 JRB       0.155300
      3 NAJ         -3.6560    -0.0610     0.0360 n7         1 JRB      -0.864400
      4 CAG         -2.8340     0.6240     1.0760 c6         1 JRB       0.155300
      5 CAI         -1.3990     0.0120     1.2250 c6         1 JRB       0.181800
      6 NAM         -0.6750    -0.0850    -0.0840 nh         1 JRB      -0.785400
      7 CAL          0.7480    -0.2220    -0.0810 ca         1 JRB       0.190000
      8 CAE          1.3300    -1.4700    -0.3950 ca         1 JRB      -0.110000
      9 CAC          2.7260    -1.6330    -0.3980 ca         1 JRB      -0.141000
     10 CAB          3.5640    -0.5510    -0.0890 ca         1 JRB      -0.084000
     11 CAD          3.0070     0.6990     0.2240 ca         1 JRB      -0.172000
     12 CAK          1.6130     0.8770     0.2340 ca         1 JRB       0.281000
     13 NAA          1.1160     2.1340     0.5270 nv         1 JRB      -1.063000
     14 HAH1        -1.6100    -1.8100    -0.9370 h1         1 JRB       0.046200
     15 HAH2        -1.0020    -0.6470    -2.1270 h1         1 JRB       0.046200
     16 HAF1        -2.8370     0.9150    -1.6610 h1         1 JRB       0.035200
     17 HAF2        -3.5260    -0.6830    -1.9960 h1         1 JRB       0.035200
     18 HAJ         -4.5390     0.4510    -0.0860 hn         1 JRB       0.411000
     19 HAG1        -2.7360     1.6870     0.8100 h1         1 JRB       0.035200
     20 HAG2        -3.3530     0.5770     2.0450 h1         1 JRB       0.035200
     21 HAI1        -0.8300     0.6280     1.9370 h1         1 JRB       0.046200
     22 HAI2        -1.4900    -0.9910     1.6690 h1         1 JRB       0.046200
     23 HAE          0.6990    -2.3230    -0.6280 ha         1 JRB       0.111000
     24 HAC          3.1590    -2.6020    -0.6390 ha         1 JRB       0.112000
     25 HAB          4.6440    -0.6810    -0.0920 ha         1 JRB       0.110000
     26 HAD          3.6640     1.5320     0.4600 ha         1 JRB       0.111000
     27 HAA1         0.1270     2.2830     0.3420 hn         1 JRB       0.447500
     28 HAA2         1.7290     2.9430     0.4700 hn         1 JRB       0.447500
@<TRIPOS>BOND
     1     1     2 1   
     2     1     6 1   
     3     1    14 1   
     4     1    15 1   
     5     2     3 1   
     6     2    16 1   
     7     2    17 1   
     8     3     4 1   
     9     3    18 1   
    10     4     5 1   
    11     4    19 1   
    12     4    20 1   
    13     5     6 1   
    14     5    21 1   
    15     5    22 1   
    16     6     7 1   
    17     7     8 ar  
    18     7    12 ar  
    19     8     9 ar  
    20     8    23 1   
    21     9    10 ar  
    22     9    24 1   
    23    10    11 ar  
    24    10    25 1   
    25    11    12 ar  
    26    11    26 1   
    27    12    13 1   
    28    13    27 1   
    29    13    28 1   
@<TRIPOS>SUBSTRUCTURE
     1 JRB         1 TEMP              0 ****  ****    0 ROOT
