@<TRIPOS>MOLECULE
JRB
   28    29     1     0     0
SMALL
abcg2


@<TRIPOS>ATOM
      1 CAH         -1.4740    -0.7140    -1.1120 c6         1 JRB       0.181800
      2 CAF         -2.8650    -0.1140    -1.2220 c6         1 JRB       0.155300
      3 NAJ         -3.4990    -0.1230     0.0830 n7         1 JRB      -0.864400
      4 CAG         -2.7290     0.6520     1.0370 c6         1 JRB       0.155300
      5 CAI         -1.3330     0.0690     1.1530 c6         1 JRB       0.181800
      6 NAM         -0.6930     0.0550    -0.1600 nh         1 JRB      -0.785400
      7 CAL          0.6960    -0.1960    -0.1220 ca         1 JRB       0.190000
      8 CAE          1.2610    -1.4210    -0.4600 ca         1 JRB      -0.110000
      9 CAC          2.6370    -1.6190    -0.4260 ca         1 JRB      -0.141000
     10 CAB          3.4620    -0.5770    -0.0330 ca         1 JRB      -0.084000
     11 CAD          2.9180     0.6550     0.3040 ca         1 JRB      -0.172000
     12 CAK          1.5400     0.8700     0.2560 ca         1 JRB       0.281000
     13 NAA          0.9920     2.0910     0.6010 nv         1 JRB      -1.063000
     14 HAH1        -1.5690    -1.7710    -0.8180 h1         1 JRB       0.046200
     15 HAH2        -0.9820    -0.6850    -2.0860 h1         1 JRB       0.046200
     16 HAF1        -2.7760     0.8980    -1.6470 h1         1 JRB       0.035200
     17 HAF2        -3.4580    -0.7110    -1.9170 h1         1 JRB       0.035200
     18 HAJ         -4.4350     0.2530     0.0110 hn         1 JRB       0.411000
     19 HAG1        -2.6400     1.7130     0.7520 h1         1 JRB       0.035200
     20 HAG2        -3.2180     0.6160     2.0120 h1         1 JRB       0.035200
     21 HAI1        -0.7430     0.6730     1.8420 h1         1 JRB       0.046200
     22 HAI2        -1.3930    -0.9480     1.5700 h1         1 JRB       0.046200
     23 HAE          0.6180    -2.2380    -0.7590 ha         1 JRB       0.111000
     24 HAC          3.0520    -2.5800    -0.7020 ha         1 JRB       0.112000
     25 HAB          4.5360    -0.7130     0.0020 ha         1 JRB       0.110000
     26 HAD          3.5700     1.4730     0.5880 ha         1 JRB       0.111000
     27 HAA1         0.1060     2.2750     0.1520 hn         1 JRB       0.447500
     28 HAA2         1.6210     2.8740     0.5230 hn         1 JRB       0.447500
@<TRIPOS>BOND
     1     1     2 1   
     2     1     6 1   
     3     1    14 1   
     4     1    15 1   
     5     2     3 1   
     6     2    16 1   
     7     2    17 1   
     8     3     4 1   
     9     3    18 1   
    10     4     5 1   
    11     4    19 1   
    12     4    20 1   
    13     5     6 1   
    14     5    21 1   
    15     5    22 1   
    16     6     7 1   
    17     7     8 ar  
    18     7    12 ar  
    19     8     9 ar  
    20     8    23 1   
    21     9    10 ar  
    22     9    24 1   
    23    10    11 ar  
    24    10    25 1   
    25    11    12 ar  
    26    11    26 1   
    27    12    13 1   
    28    13    27 1   
    29    13    28 1   
@<TRIPOS>SUBSTRUCTURE
     1 JRB         1 TEMP              0 ****  ****    0 ROOT
