@<TRIPOS>MOLECULE
JRC
   56    60     1     0     0
SMALL
abcg2


@<TRIPOS>ATOM
      1 N3          92.9820    -5.0650    14.8040 n          1 JRC      -0.390800
      2 C4          91.6170    -8.4480    15.3120 cc         1 JRC      -0.157600
      3 C5          92.1050    -7.1700    15.5870 cd         1 JRC      -0.254600
      4 C6          93.2830   -11.5080    10.5900 cc         1 JRC      -0.053000
      5 C10         93.7410   -12.6450     8.8370 cd         1 JRC       0.128400
      6 N12         90.7670    -8.7470    16.3180 na         1 JRC       0.179800
      7 C15         91.4780    -6.8170    16.7900 cd         1 JRC       0.260900
      8 C21         93.5500   -13.6320     7.7730 ca         1 JRC      -0.016800
      9 C22         89.9830    -9.9490    16.5400 c3         1 JRC       0.068900
     10 C24         92.3800   -14.3920     7.7210 ca         1 JRC      -0.090000
     11 C26         92.1880   -15.3270     6.7150 ca         1 JRC      -0.117500
     12 C28         94.0180    -4.2200    14.1820 c5         1 JRC       0.108700
     13 C1          93.1360    -6.3890    14.8710 c          1 JRC       0.661700
     14 O2          94.1270    -6.9550    14.3910 o          1 JRC      -0.653100
     15 N7          92.8090   -12.4600     9.8120 nd         1 JRC      -0.296600
     16 N9          94.5130   -11.0720    10.1360 na         1 JRC       0.121100
     17 C11         92.7180   -10.9270    11.7440 cc         1 JRC      -0.122000
     18 N13         90.6890    -7.7790    17.2180 nc         1 JRC      -0.511800
     19 C14         94.8100   -11.7980     9.0140 cc         1 JRC      -0.276100
     20 C16         93.4050    -9.9280    12.3880 cd         1 JRC       0.077600
     21 N17         92.9830    -9.2590    13.5300 ns         1 JRC      -0.395100
     22 C18         95.2010   -10.0850    10.7710 cc         1 JRC      -0.092000
     23 C19         94.6740    -9.5110    11.8750 cd         1 JRC      -0.170000
     24 O20         90.9220   -10.1700    13.8600 o          1 JRC      -0.587100
     25 C23         94.5200   -13.8330     6.7890 ca         1 JRC      -0.090000
     26 C25         94.3260   -14.7680     5.7840 ca         1 JRC      -0.117500
     27 C27         93.1590   -15.5200     5.7410 ca         1 JRC      -0.107000
     28 C29         93.3120    -2.8720    14.0060 c5         1 JRC      -0.094400
     29 C30         95.2810    -4.1150    15.0190 c3         1 JRC      -0.099100
     30 C31         91.8300    -3.2160    13.9800 c5         1 JRC      -0.097400
     31 C32         91.7380    -4.3260    15.0160 c5         1 JRC       0.102000
     32 H1          91.5960    -5.9130    17.3680 h4         1 JRC       0.045100
     33 H2          89.6380    -9.9140    17.5680 h1         1 JRC       0.071367
     34 H3          89.1270    -9.9860    15.8720 h1         1 JRC       0.071367
     35 H4          90.5900   -10.8380    16.3980 h1         1 JRC       0.071367
     36 H5          91.6180   -14.2460     8.4750 ha         1 JRC       0.120500
     37 H6          91.2740   -15.9070     6.6920 ha         1 JRC       0.110500
     38 H7          94.2620    -4.6410    13.2020 h1         1 JRC       0.065700
     39 H8          91.7620   -11.2930    12.0760 ha         1 JRC       0.172000
     40 H9          95.7240   -11.6450     8.4660 h4         1 JRC       0.229000
     41 H10         93.6110    -8.5270    13.8850 hn         1 JRC       0.378500
     42 H11         96.1540    -9.8000    10.3510 h4         1 JRC       0.144000
     43 H12         95.2310    -8.7240    12.3640 ha         1 JRC       0.144000
     44 H13         95.4380   -13.2590     6.8010 ha         1 JRC       0.120500
     45 H14         95.0900   -14.9100     5.0300 ha         1 JRC       0.110500
     46 H15         93.0080   -16.2500     4.9570 ha         1 JRC       0.110000
     47 H16         93.5270    -2.2240    14.8600 hc         1 JRC       0.056200
     48 H17         93.6550    -2.3570    13.1090 hc         1 JRC       0.056200
     49 H18         95.9660    -3.4050    14.5540 hc         1 JRC       0.047033
     50 H19         95.0500    -3.7490    16.0200 hc         1 JRC       0.047033
     51 H20         95.8000    -5.0670    15.1080 hc         1 JRC       0.047033
     52 H21         91.1870    -2.3720    14.2250 hc         1 JRC       0.058700
     53 H22         91.5360    -3.5950    12.9990 hc         1 JRC       0.058700
     54 H23         90.8700    -4.9680    14.8800 h1         1 JRC       0.056700
     55 H24         91.7010    -3.9070    16.0250 h1         1 JRC       0.056700
     56 C8          91.7970    -9.3790    14.1650 c          1 JRC       0.632700
@<TRIPOS>BOND
     1     1    12 1   
     2     1    13 1   
     3     1    31 1   
     4     2     3 2   
     5     2     6 1   
     6     2    56 1   
     7     3     7 1   
     8     3    13 1   
     9     4    15 2   
    10     4    16 1   
    11     4    17 1   
    12     5     8 1   
    13     5    15 1   
    14     5    19 2   
    15     6     9 1   
    16     6    18 1   
    17     7    18 2   
    18     7    32 1   
    19     8    10 ar  
    20     8    25 ar  
    21     9    33 1   
    22     9    34 1   
    23     9    35 1   
    24    10    11 ar  
    25    10    36 1   
    26    11    27 ar  
    27    11    37 1   
    28    12    28 1   
    29    12    29 1   
    30    12    38 1   
    31    13    14 2   
    32    16    19 1   
    33    16    22 1   
    34    17    20 2   
    35    17    39 1   
    36    19    40 1   
    37    20    21 1   
    38    20    23 1   
    39    21    41 1   
    40    21    56 1   
    41    22    23 2   
    42    22    42 1   
    43    23    43 1   
    44    24    56 2   
    45    25    26 ar  
    46    25    44 1   
    47    26    27 ar  
    48    26    45 1   
    49    27    46 1   
    50    28    30 1   
    51    28    47 1   
    52    28    48 1   
    53    29    49 1   
    54    29    50 1   
    55    29    51 1   
    56    30    31 1   
    57    30    52 1   
    58    30    53 1   
    59    31    54 1   
    60    31    55 1   
@<TRIPOS>SUBSTRUCTURE
     1 JRC         1 TEMP              0 ****  ****    0 ROOT
