@<TRIPOS>MOLECULE
JRC
   56    60     1     0     0
SMALL
No Charge or Current Charge


@<TRIPOS>ATOM
      1 N3          93.0990    -5.0020    14.9870 n          1 JRC      -0.390800
      2 C4          91.5430    -8.4810    15.3390 cc         1 JRC      -0.157600
      3 C5          92.0180    -7.1760    15.5430 cd         1 JRC      -0.254600
      4 C6          93.1320   -11.5690    10.4800 cc         1 JRC      -0.053000
      5 C10         93.6560   -12.7140     8.7180 cd         1 JRC       0.128400
      6 N12         90.6170    -8.6400    16.3830 na         1 JRC       0.179800
      7 C15         91.3410    -6.6940    16.6860 cd         1 JRC       0.260900
      8 C21         93.6090   -13.8130     7.7280 ca         1 JRC      -0.016800
      9 C22         89.7890    -9.8240    16.6690 c3         1 JRC       0.068900
     10 C24         92.6990   -14.8850     7.8780 ca         1 JRC      -0.090000
     11 C26         92.6560   -15.9280     6.9360 ca         1 JRC      -0.117500
     12 C28         94.2160    -4.1850    14.4430 c5         1 JRC       0.108700
     13 C1          93.0870    -6.4080    14.8250 c          1 JRC       0.661700
     14 O2          93.9430    -6.9470    14.1420 o          1 JRC      -0.653100
     15 N7          92.8160   -12.6750     9.8340 nd         1 JRC      -0.296600
     16 N9          94.1310   -10.9400     9.8080 na         1 JRC       0.121100
     17 C11         92.6000   -11.0150    11.6750 cc         1 JRC      -0.122000
     18 N13         90.4930    -7.5470    17.2040 nc         1 JRC      -0.511800
     19 C14         94.4950   -11.6160     8.6830 cc         1 JRC      -0.276100
     20 C16         93.1220    -9.8190    12.1320 cd         1 JRC       0.077600
     21 N17         92.7070    -9.1480    13.2770 ns         1 JRC      -0.395100
     22 C18         94.6970    -9.7230    10.1850 cc         1 JRC      -0.092000
     23 C19         94.1710    -9.1860    11.3610 cd         1 JRC      -0.170000
     24 O20         91.2970   -10.6080    14.2920 o          1 JRC      -0.587100
     25 C23         94.4740   -13.8140     6.6100 ca         1 JRC      -0.090000
     26 C25         94.4290   -14.8570     5.6690 ca         1 JRC      -0.117500
     27 C27         93.5210   -15.9150     5.8310 ca         1 JRC      -0.107000
     28 C29         93.6190    -2.7500    14.4830 c5         1 JRC      -0.094400
     29 C30         95.5070    -4.2880    15.2850 c3         1 JRC      -0.099100
     30 C31         92.1400    -3.0270    14.1430 c5         1 JRC      -0.097400
     31 C32         91.8500    -4.2060    15.1010 c5         1 JRC       0.102000
     32 H1          91.4720    -5.7480    17.1930 h4         1 JRC       0.045100
     33 H2          89.1710    -9.6480    17.5570 h1         1 JRC       0.071367
     34 H3          89.1360   -10.0290    15.8130 h1         1 JRC       0.071367
     35 H4          90.4380   -10.6890    16.8510 h1         1 JRC       0.071367
     36 H5          92.0190   -14.9160     8.7260 ha         1 JRC       0.120500
     37 H6          91.9510   -16.7460     7.0640 ha         1 JRC       0.110500
     38 H7          94.4380    -4.4800    13.4070 h1         1 JRC       0.065700
     39 H8          91.8020   -11.5500    12.1720 ha         1 JRC       0.172000
     40 H9          95.2650   -11.2900     7.9960 h4         1 JRC       0.229000
     41 H10         93.1360    -8.2490    13.4550 hn         1 JRC       0.378500
     42 H11         95.4780    -9.2960     9.5690 h4         1 JRC       0.144000
     43 H12         94.5770    -8.2420    11.7090 ha         1 JRC       0.144000
     44 H13         95.1850   -13.0060     6.4630 ha         1 JRC       0.120500
     45 H14         95.1010   -14.8450     4.8130 ha         1 JRC       0.110500
     46 H15         93.4880   -16.7220     5.1020 ha         1 JRC       0.110000
     47 H16         93.7160    -2.2930    15.4750 hc         1 JRC       0.056200
     48 H17         94.1010    -2.0780    13.7640 hc         1 JRC       0.056200
     49 H18         96.2790    -3.6120    14.9010 hc         1 JRC       0.047033
     50 H19         95.3200    -4.0280    16.3330 hc         1 JRC       0.047033
     51 H20         95.9140    -5.3050    15.2600 hc         1 JRC       0.047033
     52 H21         91.4890    -2.1650    14.3280 hc         1 JRC       0.058700
     53 H22         92.0140    -3.3210    13.0930 hc         1 JRC       0.058700
     54 H23         90.9560    -4.7630    14.7890 h1         1 JRC       0.056700
     55 H24         91.7050    -3.8470    16.1280 h1         1 JRC       0.056700
     56 C8          91.8310    -9.5090    14.2760 c          1 JRC       0.632700
@<TRIPOS>BOND
     1     1    12 1   
     2     1    13 1   
     3     1    31 1   
     4     2     3 2   
     5     2     6 1   
     6     2    56 1   
     7     3     7 1   
     8     3    13 1   
     9     4    15 2   
    10     4    16 1   
    11     4    17 1   
    12     5     8 1   
    13     5    15 1   
    14     5    19 2   
    15     6     9 1   
    16     6    18 1   
    17     7    18 2   
    18     7    32 1   
    19     8    10 ar  
    20     8    25 ar  
    21     9    33 1   
    22     9    34 1   
    23     9    35 1   
    24    10    11 ar  
    25    10    36 1   
    26    11    27 ar  
    27    11    37 1   
    28    12    28 1   
    29    12    29 1   
    30    12    38 1   
    31    13    14 2   
    32    16    19 1   
    33    16    22 1   
    34    17    20 2   
    35    17    39 1   
    36    19    40 1   
    37    20    21 1   
    38    20    23 1   
    39    21    41 1   
    40    21    56 1   
    41    22    23 2   
    42    22    42 1   
    43    23    43 1   
    44    24    56 2   
    45    25    26 ar  
    46    25    44 1   
    47    26    27 ar  
    48    26    45 1   
    49    27    46 1   
    50    28    30 1   
    51    28    47 1   
    52    28    48 1   
    53    29    49 1   
    54    29    50 1   
    55    29    51 1   
    56    30    31 1   
    57    30    52 1   
    58    30    53 1   
    59    31    54 1   
    60    31    55 1   
@<TRIPOS>SUBSTRUCTURE
     1 JRC         1 TEMP              0 ****  ****    0 ROOT
