@<TRIPOS>MOLECULE
JRD
   40    42     1     0     0
SMALL
No Charge or Current Charge


@<TRIPOS>ATOM
      1 O            2.4040     2.5140    -1.9620 o          1 JRD      -0.561100
      2 C            1.3010     2.3310    -1.4620 c          1 JRD       0.626100
      3 C1           0.4700     3.5400    -0.9810 c3         1 JRD      -0.156400
      4 C2           1.3060     4.6350    -0.2790 c3         1 JRD      -0.078100
      5 N            0.8160     1.0190    -1.2590 n          1 JRD      -0.406300
      6 C5           1.8220    -0.0810    -1.1900 c3         1 JRD       0.065700
      7 C6           2.5000    -0.1290     0.1530 cc         1 JRD       0.152300
      8 O1           3.8710    -0.1650     0.2270 os         1 JRD      -0.050700
      9 N1           4.2540    -0.1950     1.6210 nc         1 JRD      -0.360300
     10 C8           3.1070    -0.1760     2.2760 cd         1 JRD       0.274300
     11 C9           3.0760    -0.1960     3.7770 c3         1 JRD      -0.132400
     12 C7           1.9980    -0.1350     1.4160 cd         1 JRD      -0.236000
     13 C10         -0.5440     0.7140    -1.2210 cc         1 JRD       0.523300
     14 S1          -1.7450     1.5910    -2.1470 ss         1 JRD      -0.007400
     15 C18         -2.9320     0.4700    -1.5530 cc         1 JRD      -0.265000
     16 C11         -2.3570    -0.4930    -0.7530 cd         1 JRD       0.357500
     17 N2          -0.9870    -0.3570    -0.5840 nd         1 JRD      -0.635000
     18 C12         -3.0860    -1.6090    -0.1030 ca         1 JRD      -0.129500
     19 C17         -2.3990    -2.5480     0.7040 ca         1 JRD      -0.083500
     20 C16         -3.0880    -3.6070     1.3210 ca         1 JRD      -0.117000
     21 C15         -4.4730    -3.7460     1.1430 ca         1 JRD      -0.099000
     22 C14         -5.1680    -2.8240     0.3460 ca         1 JRD      -0.117000
     23 C13         -4.4820    -1.7640    -0.2720 ca         1 JRD      -0.083500
     24 H           -0.0210     3.9750    -1.8600 hc         1 JRD       0.069200
     25 H1          -0.3360     3.2100    -0.3180 hc         1 JRD       0.069200
     26 H2           1.8190     4.2250     0.6000 hc         1 JRD       0.044033
     27 H4           2.0600     5.0500    -0.9580 hc         1 JRD       0.044033
     28 H10          1.3430    -1.0510    -1.3770 h1         1 JRD       0.086700
     29 H9           2.5790     0.0480    -1.9750 h1         1 JRD       0.086700
     30 H13          2.0450    -0.1840     4.1500 hc         1 JRD       0.055367
     31 H12          3.5640    -1.0970     4.1670 hc         1 JRD       0.055367
     32 H14          3.5930     0.6770     4.1910 hc         1 JRD       0.055367
     33 H11          0.9530    -0.1110     1.6980 ha         1 JRD       0.150000
     34 H20         -3.9650     0.5920    -1.8440 h4         1 JRD       0.166000
     35 H19         -1.3260    -2.4650     0.8600 ha         1 JRD       0.124000
     36 H18         -2.5460    -4.3200     1.9380 ha         1 JRD       0.115000
     37 H17         -5.0050    -4.5660     1.6210 ha         1 JRD       0.114000
     38 H16         -6.2420    -2.9300     0.2070 ha         1 JRD       0.115000
     39 H15         -5.0510    -1.0680    -0.8830 ha         1 JRD       0.124000
     40 H3           0.6600     5.4560     0.0540 hc         1 JRD       0.044033
@<TRIPOS>BOND
     1     1     2 2   
     2     2     3 1   
     3     2     5 1   
     4     3     4 1   
     5     3    24 1   
     6     3    25 1   
     7     4    26 1   
     8     4    27 1   
     9     4    40 1   
    10     5     6 1   
    11     5    13 1   
    12     6     7 1   
    13     6    28 1   
    14     6    29 1   
    15     7     8 1   
    16     7    12 2   
    17     8     9 1   
    18     9    10 2   
    19    10    11 1   
    20    10    12 1   
    21    11    30 1   
    22    11    31 1   
    23    11    32 1   
    24    12    33 1   
    25    13    14 1   
    26    13    17 2   
    27    14    15 1   
    28    15    16 2   
    29    15    34 1   
    30    16    17 1   
    31    16    18 1   
    32    18    19 ar  
    33    18    23 ar  
    34    19    20 ar  
    35    19    35 1   
    36    20    21 ar  
    37    20    36 1   
    38    21    22 ar  
    39    21    37 1   
    40    22    23 ar  
    41    22    38 1   
    42    23    39 1   
@<TRIPOS>SUBSTRUCTURE
     1 JRD         1 TEMP              0 ****  ****    0 ROOT
