@<TRIPOS>MOLECULE
JRD
   40    42     1     0     0
SMALL
bcc


@<TRIPOS>ATOM
      1 O            2.3670     3.4020    -0.8210 o          1 JRD      -0.561100
      2 C            1.3220     2.8250    -1.0320 c          1 JRD       0.693100
      3 C1          -0.0040     3.5390    -1.1510 c3         1 JRD      -0.156400
      4 C2           0.1260     5.0500    -1.0700 c3         1 JRD      -0.078100
      5 N            1.2870     1.4580    -1.1980 n          1 JRD      -0.473300
      6 C5           2.4860     0.6460    -1.0170 c3         1 JRD       0.065700
      7 C6           2.4050    -0.1640     0.2280 cc         1 JRD       0.262000
      8 O1           2.2570     0.4830     1.3850 os         1 JRD      -0.095100
      9 N1           2.1370    -0.4200     2.4000 nc         1 JRD      -0.360300
     10 C8           2.2250    -1.6010     1.8590 cd         1 JRD       0.339600
     11 C9           2.1240    -2.8380     2.6760 c3         1 JRD      -0.132400
     12 C7           2.4020    -1.4960     0.4520 cd         1 JRD      -0.384600
     13 C10          0.0900     0.7490    -1.3040 cc         1 JRD       0.523300
     14 S1          -0.5450     0.2690    -2.8360 ss         1 JRD      -0.152300
     15 C18         -1.8100    -0.5400    -2.0260 cc         1 JRD      -0.203400
     16 C11         -1.6710    -0.4060    -0.6720 cd         1 JRD       0.422800
     17 N2          -0.5850     0.3280    -0.2900 nd         1 JRD      -0.635000
     18 C12         -2.5380    -0.9920     0.3570 ca         1 JRD      -0.129500
     19 C17         -2.0990    -1.0640     1.6800 ca         1 JRD      -0.101500
     20 C16         -2.9020    -1.6330     2.6580 ca         1 JRD      -0.135000
     21 C15         -4.1540    -2.1370     2.3320 ca         1 JRD      -0.117000
     22 C14         -4.6000    -2.0660     1.0170 ca         1 JRD      -0.135000
     23 C13         -3.8000    -1.4960     0.0390 ca         1 JRD      -0.101500
     24 H           -0.4810     3.2500    -2.0920 hc         1 JRD       0.069200
     25 H1          -0.6680     3.1760    -0.3620 hc         1 JRD       0.069200
     26 H2           0.5440     5.3670    -0.1160 hc         1 JRD       0.044033
     27 H4           0.7570     5.4440    -1.8650 hc         1 JRD       0.044033
     28 H10          2.6060    -0.0280    -1.8660 h1         1 JRD       0.086700
     29 H9           3.3490     1.3100    -1.0010 h1         1 JRD       0.086700
     30 H13          1.2970    -3.4570     2.3300 hc         1 JRD       0.055367
     31 H12          3.0340    -3.4320     2.5890 hc         1 JRD       0.055367
     32 H14          1.9640    -2.6030     3.7270 hc         1 JRD       0.055367
     33 H11          2.4850    -2.2910    -0.2690 ha         1 JRD       0.168000
     34 H20         -2.5690    -1.0770    -2.5740 h4         1 JRD       0.184000
     35 H19         -1.1220    -0.6790     1.9420 ha         1 JRD       0.142000
     36 H18         -2.5460    -1.6830     3.6790 ha         1 JRD       0.133000
     37 H17         -4.7800    -2.5790     3.0960 ha         1 JRD       0.132000
     38 H16         -5.5760    -2.4500     0.7530 ha         1 JRD       0.133000
     39 H15         -4.1700    -1.4380    -0.9780 ha         1 JRD       0.142000
     40 H3          -0.8580     5.5050    -1.1710 hc         1 JRD       0.044033
@<TRIPOS>BOND
     1     1     2 2   
     2     2     3 1   
     3     2     5 1   
     4     3     4 1   
     5     3    24 1   
     6     3    25 1   
     7     4    26 1   
     8     4    27 1   
     9     4    40 1   
    10     5     6 1   
    11     5    13 1   
    12     6     7 1   
    13     6    28 1   
    14     6    29 1   
    15     7     8 1   
    16     7    12 2   
    17     8     9 1   
    18     9    10 2   
    19    10    11 1   
    20    10    12 1   
    21    11    30 1   
    22    11    31 1   
    23    11    32 1   
    24    12    33 1   
    25    13    14 1   
    26    13    17 2   
    27    14    15 1   
    28    15    16 2   
    29    15    34 1   
    30    16    17 1   
    31    16    18 1   
    32    18    19 ar  
    33    18    23 ar  
    34    19    20 ar  
    35    19    35 1   
    36    20    21 ar  
    37    20    36 1   
    38    21    22 ar  
    39    21    37 1   
    40    22    23 ar  
    41    22    38 1   
    42    23    39 1   
@<TRIPOS>SUBSTRUCTURE
     1 JRD         1 TEMP              0 ****  ****    0 ROOT
