@<TRIPOS>MOLECULE
JRE
   40    42     1     0     0
SMALL
bcc


@<TRIPOS>ATOM
      1 C5           2.5600    -0.0230     0.0470 ca         1 JRE      -0.049300
      2 C6           3.8860     0.2480    -0.2770 ca         1 JRE      -0.089900
      3 C8           4.2090     1.0240    -1.3800 ca         1 JRE       0.413200
      4 C10          2.0210     1.3200    -1.8770 ca         1 JRE       0.414200
      5 C13         -0.6180    -0.4060    -1.4150 ca         1 JRE       0.461200
      6 C15         -2.5640     0.0690    -0.3160 ca         1 JRE       0.579200
      7 C17         -2.6300     1.6040     1.7170 c6         1 JRE      -0.018100
      8 C21         -4.7050    -0.4310    -1.3300 c          1 JRE       0.802100
      9 C24         -0.5360     1.0460     0.4480 ca         1 JRE      -0.060000
     10 C1           2.2990    -0.1990     2.5480 c3         1 JRE      -0.126100
     11 C2           2.1450    -0.9120     1.2100 c3         1 JRE       0.193400
     12 O4           2.7760    -2.1680     1.1690 oh         1 JRE      -0.582800
     13 CL7          5.2100    -0.3510     0.6700 cl         1 JRE      -0.106400
     14 N9           3.2910     1.5460    -2.1740 nb         1 JRE      -0.652000
     15 C11          1.5990     0.5590    -0.7900 cp         1 JRE      -0.128300
     16 C12          0.1440     0.3940    -0.5730 cp         1 JRE      -0.203300
     17 N14         -1.9210    -0.5750    -1.2810 nb         1 JRE      -0.688000
     18 C16         -1.9050     0.9030     0.6020 ca         1 JRE      -0.237600
     19 C18         -4.1350     1.5530     1.5290 c6         1 JRE      -0.099400
     20 C19         -4.5550     0.1620     1.0870 c6         1 JRE       0.108000
     21 N20         -3.9330    -0.1600    -0.1970 n          1 JRE      -0.499300
     22 N22         -5.8540    -1.0960    -1.0720 nt         1 JRE      -0.676000
     23 O23         -4.3930    -0.0610    -2.4470 o          1 JRE      -0.580100
     24 H1           5.2480     1.2200    -1.6200 h4         1 JRE       0.035100
     25 H2           1.2810     1.7670    -2.5320 h4         1 JRE       0.032100
     26 H3          -0.1420    -0.9500    -2.2250 h4         1 JRE       0.030100
     27 H4          -2.3600     1.1270     2.6640 hc         1 JRE       0.052200
     28 H5          -2.2840     2.6370     1.7880 hc         1 JRE       0.052200
     29 H6           0.0030     1.6970     1.1300 ha         1 JRE       0.136000
     30 H7           1.7090     0.7170     2.5640 hc         1 JRE       0.047033
     31 H8           1.9390    -0.8400     3.3530 hc         1 JRE       0.047033
     32 H9           3.3340     0.0700     2.7600 hc         1 JRE       0.047033
     33 H10          1.0840    -1.1280     1.0760 h1         1 JRE       0.084700
     34 H11          3.6460    -2.1070     1.5750 ho         1 JRE       0.409000
     35 H12         -4.6430     1.8110     2.4590 hc         1 JRE       0.057700
     36 H13         -4.4540     2.2760     0.7740 hc         1 JRE       0.057700
     37 H14         -4.2730    -0.5810     1.8390 h1         1 JRE       0.053700
     38 H15         -5.6350     0.1210     0.9770 h1         1 JRE       0.053700
     39 H16         -5.9620    -1.6620    -0.2480 hn         1 JRE       0.314500
     40 H17         -6.4260    -1.3520    -1.8600 hn         1 JRE       0.314500
@<TRIPOS>BOND
     1     1     2 ar  
     2     1    11 1   
     3     1    15 ar  
     4     2     3 ar  
     5     2    13 1   
     6     3    14 ar  
     7     3    24 1   
     8     4    14 ar  
     9     4    15 ar  
    10     4    25 1   
    11     5    16 ar  
    12     5    17 ar  
    13     5    26 1   
    14     6    17 ar  
    15     6    18 ar  
    16     6    21 1   
    17     7    18 1   
    18     7    19 1   
    19     7    27 1   
    20     7    28 1   
    21     8    21 1   
    22     8    22 1   
    23     8    23 2   
    24     9    16 ar  
    25     9    18 ar  
    26     9    29 1   
    27    10    11 1   
    28    10    30 1   
    29    10    31 1   
    30    10    32 1   
    31    11    12 1   
    32    11    33 1   
    33    12    34 1   
    34    15    16 1   
    35    19    20 1   
    36    19    35 1   
    37    19    36 1   
    38    20    21 1   
    39    20    37 1   
    40    20    38 1   
    41    22    39 1   
    42    22    40 1   
@<TRIPOS>SUBSTRUCTURE
     1 JRE         1 TEMP              0 ****  ****    0 ROOT
