@<TRIPOS>MOLECULE
JRE
   40    42     1     0     0
SMALL
No Charge or Current Charge


@<TRIPOS>ATOM
      1 C5           2.5920     0.0180     0.1080 ca         1 JRE      -0.049300
      2 C6           3.9640     0.2450    -0.1910 ca         1 JRE       0.067000
      3 C8           4.3130     0.8540    -1.4140 ca         1 JRE       0.347900
      4 C10          2.1090     1.0330    -2.0640 ca         1 JRE       0.348900
      5 C13         -0.5940    -0.5660    -1.5320 ca         1 JRE       0.395900
      6 C15         -2.5690    -0.0800    -0.4450 ca         1 JRE       0.513900
      7 C17         -2.6780     1.3770     1.6690 c6         1 JRE      -0.018100
      8 C21         -4.8350    -0.0220    -1.4360 c          1 JRE       0.668100
      9 C24         -0.5330     0.9610     0.3450 ca         1 JRE      -0.042000
     10 C1           2.3280     0.2070     2.6640 c3         1 JRE      -0.126100
     11 C2           2.1470    -0.6760     1.4120 c3         1 JRE       0.216600
     12 O4           2.8380    -1.9150     1.6030 oh         1 JRE      -0.645000
     13 Cl7          5.2780    -0.2210     0.9020 cl         1 JRE      -0.198000
     14 N9           3.4120     1.2430    -2.3440 nb         1 JRE      -0.652000
     15 C11          1.6340     0.4410    -0.8650 cp         1 JRE      -0.063000
     16 C12          0.1610     0.2780    -0.6790 cp         1 JRE      -0.138000
     17 N14         -1.9270    -0.7530    -1.4200 nb         1 JRE      -0.688000
     18 C16         -1.9190     0.7740     0.4720 ca         1 JRE      -0.172300
     19 C18         -4.1660     0.9210     1.7880 c6         1 JRE      -0.099400
     20 C19         -4.4410    -0.4090     1.0440 c6         1 JRE       0.108000
     21 N20         -3.9740    -0.2260    -0.3460 n          1 JRE      -0.432300
     22 N22         -6.1530    -0.1910    -1.2180 nt         1 JRE      -0.609000
     23 O23         -4.4560     0.3140    -2.5430 o          1 JRE      -0.580100
     24 H1           5.3600     1.0310    -1.6590 h4         1 JRE       0.035100
     25 H2           1.4020     1.3600    -2.8260 h4         1 JRE       0.032100
     26 H3          -0.1000    -1.1150    -2.3330 h4         1 JRE       0.030100
     27 H4          -2.1510     1.0890     2.5890 hc         1 JRE       0.052200
     28 H5          -2.6300     2.4740     1.6290 hc         1 JRE       0.052200
     29 H6          -0.0000     1.6120     1.0350 ha         1 JRE       0.118000
     30 H7           1.7980     1.1580     2.5420 hc         1 JRE       0.047033
     31 H8           1.9180    -0.2970     3.5480 hc         1 JRE       0.047033
     32 H9           3.3820     0.4310     2.8590 hc         1 JRE       0.047033
     33 H10          1.0750    -0.8990     1.3420 h1         1 JRE       0.084700
     34 H11          3.7960    -1.7000     1.5950 ho         1 JRE       0.448000
     35 H12         -4.4520     0.8320     2.8450 hc         1 JRE       0.057700
     36 H13         -4.8140     1.7000     1.3610 hc         1 JRE       0.057700
     37 H14         -3.8700    -1.2220     1.5160 h1         1 JRE       0.053700
     38 H15         -5.5040    -0.6740     1.1110 h1         1 JRE       0.053700
     39 H16         -6.4870    -0.4700    -0.3100 hn         1 JRE       0.314500
     40 H17         -6.7970    -0.0460    -1.9800 hn         1 JRE       0.314500
@<TRIPOS>BOND
     1     1     2 ar  
     2     1    11 1   
     3     1    15 ar  
     4     2     3 ar  
     5     2    13 1   
     6     3    14 ar  
     7     3    24 1   
     8     4    14 ar  
     9     4    15 ar  
    10     4    25 1   
    11     5    16 ar  
    12     5    17 ar  
    13     5    26 1   
    14     6    17 ar  
    15     6    18 ar  
    16     6    21 1   
    17     7    18 1   
    18     7    19 1   
    19     7    27 1   
    20     7    28 1   
    21     8    21 1   
    22     8    22 1   
    23     8    23 2   
    24     9    16 ar  
    25     9    18 ar  
    26     9    29 1   
    27    10    11 1   
    28    10    30 1   
    29    10    31 1   
    30    10    32 1   
    31    11    12 1   
    32    11    33 1   
    33    12    34 1   
    34    15    16 1   
    35    19    20 1   
    36    19    35 1   
    37    19    36 1   
    38    20    21 1   
    39    20    37 1   
    40    20    38 1   
    41    22    39 1   
    42    22    40 1   
@<TRIPOS>SUBSTRUCTURE
     1 JRE         1 TEMP              0 ****  ****    0 ROOT
