@<TRIPOS>MOLECULE
JRF
   26    28     1     0     0
SMALL
No Charge or Current Charge


@<TRIPOS>ATOM
      1 C08        185.6470   172.3750   182.5950 cc         1 JRF       0.014000
      2 C09        184.2510   172.6910   182.6360 cc         1 JRF       0.013000
      3 C10        187.7110   172.2320   181.7040 ca         1 JRF      -0.112200
      4 C11        183.6350   173.1840   181.4890 cd         1 JRF      -0.081300
      5 C12        185.8060   172.9540   180.2410 cc         1 JRF       0.203100
      6 C13        187.6940   171.7900   183.0050 ca         1 JRF       0.115400
      7 C14        182.1550   173.5700   181.4450 c3         1 JRF       0.364300
      8 C15        184.4610   173.2840   180.2960 cd         1 JRF      -0.208000
      9 C16        188.9010   172.3020   180.9520 ca         1 JRF      -0.105000
     10 C17        183.5620   172.4790   183.8710 cg         1 JRF       0.326000
     11 C18        188.8670   171.3420   183.6270 ca         1 JRF      -0.055000
     12 C19        190.0890   171.8530   181.5650 ca         1 JRF      -0.096000
     13 C20        190.0720   171.3690   182.8940 ca         1 JRF      -0.109000
     14 F01        181.3530   172.5110   181.7030 f          1 JRF      -0.101000
     15 F02        181.8570   174.5260   182.3540 f          1 JRF      -0.101000
     16 F03        181.7710   174.0560   180.2430 f          1 JRF      -0.101000
     17 N05        186.4100   172.5860   181.4550 na         1 JRF       0.055200
     18 N06        186.4210   171.8740   183.5770 nd         1 JRF      -0.267400
     19 N07        182.9740   172.3150   184.8670 n1         1 JRF      -0.402000
     20 O04        186.5160   172.9910   179.0960 oh         1 JRF      -0.520100
     21 H151       184.0090   173.6150   179.3670 ha         1 JRF       0.167000
     22 H161       188.9420   172.7020   179.9430 ha         1 JRF       0.116000
     23 H181       188.8470   170.9900   184.6560 ha         1 JRF       0.140000
     24 H191       191.0270   171.8880   181.0160 ha         1 JRF       0.121000
     25 H201       190.9950   171.0290   183.3580 ha         1 JRF       0.123000
     26 H041       187.3580   172.5270   179.2740 ho         1 JRF       0.499000
@<TRIPOS>BOND
     1     1     2 1   
     2     1    17 1   
     3     1    18 2   
     4     2     4 2   
     5     2    10 1   
     6     3     6 ar  
     7     3     9 ar  
     8     3    17 1   
     9     4     7 1   
    10     4     8 1   
    11     5     8 2   
    12     5    17 1   
    13     5    20 1   
    14     6    11 ar  
    15     6    18 1   
    16     7    14 1   
    17     7    15 1   
    18     7    16 1   
    19     8    21 1   
    20     9    12 ar  
    21     9    22 1   
    22    10    19 3   
    23    11    13 ar  
    24    11    23 1   
    25    12    13 ar  
    26    12    24 1   
    27    13    25 1   
    28    20    26 1   
@<TRIPOS>SUBSTRUCTURE
     1 JRF         1 TEMP              0 ****  ****    0 ROOT
