@<TRIPOS>MOLECULE
JRF
   26    28     1     0     0
SMALL
abcg2


@<TRIPOS>ATOM
      1 C08        185.6630   172.3300   182.5780 cc         1 JRF       0.014000
      2 C09        184.2840   172.6580   182.5970 cc         1 JRF       0.013000
      3 C10        187.7030   172.2180   181.6890 ca         1 JRF      -0.112200
      4 C11        183.7020   173.1610   181.4550 cd         1 JRF      -0.081300
      5 C12        185.7820   173.0040   180.2650 cc         1 JRF       0.203100
      6 C13        187.6610   171.7740   183.0230 ca         1 JRF       0.115400
      7 C14        182.2430   173.5400   181.4670 c3         1 JRF       0.364300
      8 C15        184.4470   173.3230   180.2840 cd         1 JRF      -0.208000
      9 C16        188.8940   172.2890   180.9720 ca         1 JRF      -0.105000
     10 C17        183.5900   172.4590   183.8180 cg         1 JRF       0.326000
     11 C18        188.8300   171.3460   183.6530 ca         1 JRF      -0.055000
     12 C19        190.0390   171.8610   181.6160 ca         1 JRF      -0.096000
     13 C20        190.0070   171.3880   182.9360 ca         1 JRF      -0.109000
     14 F01        181.4910   172.5440   181.9380 f          1 JRF      -0.101000
     15 F02        182.0370   174.6030   182.2480 f          1 JRF      -0.101000
     16 F03        181.7940   173.8430   180.2520 f          1 JRF      -0.101000
     17 N05        186.3840   172.5580   181.3990 na         1 JRF       0.055200
     18 N06        186.3980   171.8590   183.5400 nd         1 JRF      -0.267400
     19 N07        183.0460   172.2920   184.8200 n1         1 JRF      -0.402000
     20 O04        186.4770   173.1650   179.1590 oh         1 JRF      -0.520100
     21 H151       184.0000   173.6710   179.3650 ha         1 JRF       0.167000
     22 H161       188.9720   172.6780   179.9670 ha         1 JRF       0.116000
     23 H181       188.8040   170.9990   184.6770 ha         1 JRF       0.140000
     24 H191       190.9820   171.9020   181.0880 ha         1 JRF       0.121000
     25 H201       190.9290   171.0650   183.4010 ha         1 JRF       0.123000
     26 H041       187.1730   172.5080   179.0230 ho         1 JRF       0.499000
@<TRIPOS>BOND
     1     1     2 1   
     2     1    17 1   
     3     1    18 2   
     4     2     4 2   
     5     2    10 1   
     6     3     6 ar  
     7     3     9 ar  
     8     3    17 1   
     9     4     7 1   
    10     4     8 1   
    11     5     8 2   
    12     5    17 1   
    13     5    20 1   
    14     6    11 ar  
    15     6    18 1   
    16     7    14 1   
    17     7    15 1   
    18     7    16 1   
    19     8    21 1   
    20     9    12 ar  
    21     9    22 1   
    22    10    19 3   
    23    11    13 ar  
    24    11    23 1   
    25    12    13 ar  
    26    12    24 1   
    27    13    25 1   
    28    20    26 1   
@<TRIPOS>SUBSTRUCTURE
     1 JRF         1 TEMP              0 ****  ****    0 ROOT
