@<TRIPOS>MOLECULE
JRI
   50    53     1     0     0
SMALL
abcg2


@<TRIPOS>ATOM
      1 C1          98.4720   109.9230    97.9750 c5         1 JRI       0.117800
      2 C10         98.7400   114.0360   104.3820 c3         1 JRI      -0.092100
      3 C11        103.6050   113.6760   105.0310 ca         1 JRI       0.322000
      4 C12        104.6900   113.9700   104.2290 ca         1 JRI      -0.177000
      5 C13        105.8490   114.5450   104.7620 ca         1 JRI      -0.030000
      6 C14        105.9370   114.8440   106.1020 ca         1 JRI      -0.018000
      7 C15        104.8660   114.5120   106.9750 ca         1 JRI       0.310000
      8 C16        103.7130   113.8930   106.4420 ca         1 JRI      -0.100000
      9 C17        102.7400   113.4550   107.3660 ca         1 JRI      -0.047000
     10 C18        104.0670   114.3990   109.1090 ca         1 JRI       0.368900
     11 C19        102.9130   113.7090   108.6980 ca         1 JRI      -0.178000
     12 C2          98.8880   108.9250   100.0720 c5         1 JRI       0.129800
     13 C20        107.0980   115.4680   106.6340 cg         1 JRI       0.344000
     14 C3          99.7630   110.1920    99.9150 c5         1 JRI       0.053700
     15 C4          99.0100   111.0100    98.8770 c5         1 JRI       0.140300
     16 C5         101.2000   111.6460   103.1090 c6         1 JRI       0.082300
     17 C6         102.4780   112.4630   103.2510 c6         1 JRI       0.167800
     18 C7         101.2400   114.0050   104.6150 c6         1 JRI       0.155800
     19 C8          99.9830   113.1750   104.4210 c6         1 JRI       0.173300
     20 F1          97.9500   111.6700    99.5090 f          1 JRI      -0.272000
     21 N1          98.0720   108.8290    98.8570 n7         1 JRI      -0.838400
     22 N2         100.0160   110.9020   101.1370 ns         1 JRI      -0.479900
     23 N3         102.4230   113.1490   104.5280 nh         1 JRI      -0.797400
     24 N4         105.0140   114.7740   108.2890 nb         1 JRI      -0.659000
     25 N5         108.0500   115.9760   107.0410 n1         1 JRI      -0.452000
     26 O1         100.0640   112.4650   103.1960 os         1 JRI      -0.471000
     27 O2         102.1770   110.2700   101.4240 o          1 JRI      -0.603100
     28 H1          97.6430   110.2550    97.3500 h1         1 JRI       0.069700
     29 H2          99.2770   109.6060    97.3040 h1         1 JRI       0.069700
     30 H3          98.6280   114.5710   105.3250 hc         1 JRI       0.050367
     31 H4          98.7940   114.7700   103.5780 hc         1 JRI       0.050367
     32 H5          97.8490   113.4260   104.2360 hc         1 JRI       0.050367
     33 H6         104.6490   113.7970   103.1630 ha         1 JRI       0.126000
     34 H7         106.6700   114.7840   104.1000 ha         1 JRI       0.129000
     35 H8         101.8760   112.9000   107.0260 ha         1 JRI       0.128000
     36 H9         104.2130   114.6290   110.1590 h4         1 JRI       0.025100
     37 H10        102.1890   113.3800   109.4310 ha         1 JRI       0.127000
     38 H11         98.2600   109.0030   100.9620 h1         1 JRI       0.059200
     39 H12         99.5230   108.0460   100.2030 h1         1 JRI       0.059200
     40 H13        100.7260   109.9200    99.4800 h1         1 JRI       0.096700
     41 H14         99.6220   111.7620    98.3770 h1         1 JRI       0.079700
     42 H15        101.1890   110.8940   103.9150 h1         1 JRI       0.072700
     43 H16        103.3370   111.7930   103.2360 h1         1 JRI       0.065200
     44 H17        102.5710   113.1610   102.4060 h1         1 JRI       0.065200
     45 H18        101.1970   114.5020   105.5840 h1         1 JRI       0.055200
     46 H19        101.2850   114.7940   103.8490 h1         1 JRI       0.055200
     47 H20         99.9110   112.4560   105.2510 h1         1 JRI       0.045700
     48 H21         97.0980   108.9430    99.1010 hn         1 JRI       0.414000
     49 H23         99.2530   111.4120   101.5570 hn         1 JRI       0.344500
     50 C9         101.1820   110.8760   101.7940 c          1 JRI       0.612100
@<TRIPOS>BOND
     1     1    15 1   
     2     1    21 1   
     3     1    28 1   
     4     1    29 1   
     5     2    19 1   
     6     2    30 1   
     7     2    31 1   
     8     2    32 1   
     9     3     4 ar  
    10     3     8 ar  
    11     3    23 1   
    12     4     5 ar  
    13     4    33 1   
    14     5     6 ar  
    15     5    34 1   
    16     6     7 ar  
    17     6    13 1   
    18     7     8 ar  
    19     7    24 ar  
    20     8     9 ar  
    21     9    11 ar  
    22     9    35 1   
    23    10    11 ar  
    24    10    24 ar  
    25    10    36 1   
    26    11    37 1   
    27    12    14 1   
    28    12    21 1   
    29    12    38 1   
    30    12    39 1   
    31    13    25 3   
    32    14    15 1   
    33    14    22 1   
    34    14    40 1   
    35    15    20 1   
    36    15    41 1   
    37    16    17 1   
    38    16    26 1   
    39    16    42 1   
    40    16    50 1   
    41    17    23 1   
    42    17    43 1   
    43    17    44 1   
    44    18    19 1   
    45    18    23 1   
    46    18    45 1   
    47    18    46 1   
    48    19    26 1   
    49    19    47 1   
    50    21    48 1   
    51    22    49 1   
    52    22    50 1   
    53    27    50 2   
@<TRIPOS>SUBSTRUCTURE
     1 JRI         1 TEMP              0 ****  ****    0 ROOT
