@<TRIPOS>MOLECULE
JRI
   50    53     1     0     0
SMALL
No Charge or Current Charge


@<TRIPOS>ATOM
      1 C1         100.8060   110.0650    97.7590 c5         1 JRI       0.117800
      2 C10         98.1940   112.4720   106.7460 c3         1 JRI      -0.092100
      3 C11        102.5990   114.0930   104.8200 ca         1 JRI       0.322000
      4 C12        102.6660   115.1380   103.8890 ca         1 JRI      -0.177000
      5 C13        103.7420   116.0340   103.9000 ca         1 JRI      -0.030000
      6 C14        104.7690   115.8930   104.8490 ca         1 JRI      -0.018000
      7 C15        104.7290   114.8460   105.8020 ca         1 JRI       0.310000
      8 C16        103.6300   113.9410   105.7780 ca         1 JRI      -0.100000
      9 C17        103.5940   112.8870   106.7200 ca         1 JRI      -0.047000
     10 C18        105.6780   113.7070   107.6160 ca         1 JRI       0.368900
     11 C19        104.6350   112.7750   107.6500 ca         1 JRI      -0.178000
     12 C2          99.3130   111.0210    99.3310 c5         1 JRI       0.129800
     13 C20        105.8550   116.8360   104.8260 cg         1 JRI       0.344000
     14 C3         100.1760   109.9920   100.1040 c5         1 JRI       0.053700
     15 C4         101.4400   109.9370    99.1870 c5         1 JRI       0.140300
     16 C5         100.1470   111.3310   103.7530 c6         1 JRI       0.082300
     17 C6         101.0920   112.5510   103.5060 c6         1 JRI       0.167800
     18 C7         100.3440   113.4690   105.7180 c6         1 JRI       0.155800
     19 C8          99.4670   112.1940   105.9120 c6         1 JRI       0.173300
     20 F1         102.3180   111.0070    99.4260 f          1 JRI      -0.272000
     21 N1          99.3820   110.4910    97.9490 n7         1 JRI      -0.838400
     22 N2         100.5760   110.6310   101.3760 ns         1 JRI      -0.479900
     23 N3         101.4880   113.2200   104.7860 nh         1 JRI      -0.797400
     24 N4         105.7280   114.7140   106.7170 nb         1 JRI      -0.659000
     25 N5         106.7280   117.6130   104.7900 n1         1 JRI      -0.452000
     26 O1          99.0340   111.6800   104.6330 os         1 JRI      -0.471000
     27 O2          98.6150   110.0170   102.3700 o          1 JRI      -0.603100
     28 H1         101.3610   110.8030    97.1620 h1         1 JRI       0.069700
     29 H2         100.8530   109.1100    97.2160 h1         1 JRI       0.069700
     30 H3          98.4540   112.8380   107.7470 hc         1 JRI       0.050367
     31 H4          97.5610   113.2280   106.2670 hc         1 JRI       0.050367
     32 H5          97.5980   111.5600   106.8700 hc         1 JRI       0.050367
     33 H6         101.8720   115.2670   103.1590 ha         1 JRI       0.126000
     34 H7         103.7740   116.8420   103.1700 ha         1 JRI       0.129000
     35 H8         102.7830   112.1630   106.7350 ha         1 JRI       0.128000
     36 H9         106.5020   113.6460   108.3260 h4         1 JRI       0.025100
     37 H10        104.6400   111.9790   108.3880 ha         1 JRI       0.127000
     38 H11         99.7470   112.0320    99.3840 h1         1 JRI       0.059200
     39 H12         98.2800   111.0720    99.7030 h1         1 JRI       0.059200
     40 H13         99.6860   109.0140   100.2080 h1         1 JRI       0.096700
     41 H14        102.0040   109.0030    99.3120 h1         1 JRI       0.079700
     42 H15        100.7520   110.5780   104.2780 h1         1 JRI       0.072700
     43 H16        101.9990   112.2090   102.9860 h1         1 JRI       0.065200
     44 H17        100.5810   113.2670   102.8450 h1         1 JRI       0.065200
     45 H18        100.7180   113.7900   106.7020 h1         1 JRI       0.055200
     46 H19         99.7150   114.2830   105.3280 h1         1 JRI       0.055200
     47 H20        100.0590   111.4200   106.4240 h1         1 JRI       0.045700
     48 H21         99.1150   111.2110    97.2620 hn         1 JRI       0.414000
     49 H23        101.4630   111.1050   101.4980 hn         1 JRI       0.344500
     50 C9          99.6980   110.5890   102.4510 c          1 JRI       0.612100
@<TRIPOS>BOND
     1     1    15 1   
     2     1    21 1   
     3     1    28 1   
     4     1    29 1   
     5     2    19 1   
     6     2    30 1   
     7     2    31 1   
     8     2    32 1   
     9     3     4 ar  
    10     3     8 ar  
    11     3    23 1   
    12     4     5 ar  
    13     4    33 1   
    14     5     6 ar  
    15     5    34 1   
    16     6     7 ar  
    17     6    13 1   
    18     7     8 ar  
    19     7    24 ar  
    20     8     9 ar  
    21     9    11 ar  
    22     9    35 1   
    23    10    11 ar  
    24    10    24 ar  
    25    10    36 1   
    26    11    37 1   
    27    12    14 1   
    28    12    21 1   
    29    12    38 1   
    30    12    39 1   
    31    13    25 3   
    32    14    15 1   
    33    14    22 1   
    34    14    40 1   
    35    15    20 1   
    36    15    41 1   
    37    16    17 1   
    38    16    26 1   
    39    16    42 1   
    40    16    50 1   
    41    17    23 1   
    42    17    43 1   
    43    17    44 1   
    44    18    19 1   
    45    18    23 1   
    46    18    45 1   
    47    18    46 1   
    48    19    26 1   
    49    19    47 1   
    50    21    48 1   
    51    22    49 1   
    52    22    50 1   
    53    27    50 2   
@<TRIPOS>SUBSTRUCTURE
     1 JRI         1 TEMP              0 ****  ****    0 ROOT
