@<TRIPOS>MOLECULE
JRJ
   40    42     1     0     0
SMALL
bcc


@<TRIPOS>ATOM
      1 N01         12.6830     0.3180     1.5110 n8         1 JRJ      -0.885800
      2 C02         11.3950    -0.3410     1.3560 c3         1 JRJ       0.151800
      3 C03         10.4540     0.5010     0.5080 c3         1 JRJ      -0.077400
      4 C04          9.0830    -0.1440     0.3500 c3         1 JRJ      -0.097400
      5 C05          8.1800     0.6960    -0.5400 c3         1 JRJ       0.051300
      6 N06          6.8360     0.1550    -0.6310 na         1 JRJ       0.107400
      7 C07          5.7240     0.5820    -0.0110 cc         1 JRJ      -0.233600
      8 C08          4.7590    -0.3140    -0.3930 cd         1 JRJ       0.253600
      9 C09          3.3110    -0.3430    -0.0500 c3         1 JRJ      -0.105700
     10 C10          2.4620    -0.0120    -1.2780 c3         1 JRJ       0.057300
     11 N11          1.0480     0.0030    -0.9420 na         1 JRJ       0.364100
     12 N12          0.4540     1.1050    -0.5810 nc         1 JRJ      -0.227400
     13 C13         -0.7830     0.7020    -0.2850 ca         1 JRJ      -0.105500
     14 C14         -1.9020     1.4250     0.1580 ca         1 JRJ       0.048600
     15 BR1         -1.7260     3.2610     0.4060 br         1 JRJ      -0.017600
     16 C16         -3.0630     0.7260     0.3840 ca         1 JRJ       0.007600
     17 BR2         -4.5820     1.6400     0.9770 br         1 JRJ      -0.027100
     18 C18         -3.1300    -0.6930     0.1720 ca         1 JRJ       0.007600
     19 BR3         -4.7340    -1.5970     0.4940 br         1 JRJ      -0.027100
     20 C20         -2.0360    -1.4000    -0.2640 ca         1 JRJ       0.048600
     21 BR4         -2.0330    -3.2360    -0.5650 br         1 JRJ      -0.017600
     22 C22         -0.8480    -0.6850    -0.4920 ca         1 JRJ      -0.105500
     23 N23          0.3500    -1.0960    -0.9120 nc         1 JRJ      -0.227400
     24 N24          5.3400    -1.2180    -1.2110 nd         1 JRJ      -0.356000
     25 N25          6.5900    -0.9270    -1.3450 nc         1 JRJ      -0.196800
     26 H011        12.5700     1.1390     2.0920 hn         1 JRJ       0.339300
     27 H012        13.3130    -0.2890     2.0190 hn         1 JRJ       0.339300
     28 H021        11.5600    -1.3000     0.8580 h1         1 JRJ       0.030200
     29 H022        10.9020    -0.5740     2.3110 h1         1 JRJ       0.030200
     30 H031        10.3370     1.4890     0.9670 hc         1 JRJ       0.048700
     31 H032        10.9080     0.6670    -0.4730 hc         1 JRJ       0.048700
     32 H041         9.1880    -1.1440    -0.0790 hc         1 JRJ       0.059700
     33 H042         8.6130    -0.2660     1.3300 hc         1 JRJ       0.059700
     34 H051         8.0870     1.7090    -0.1500 h1         1 JRJ       0.069200
     35 H052         8.5830     0.7690    -1.5500 h1         1 JRJ       0.069200
     36 H07          5.7020     1.4500     0.6250 h4         1 JRJ       0.188000
     37 H091         3.0300    -1.3290     0.3270 hc         1 JRJ       0.072200
     38 H092         3.1090     0.3810     0.7400 hc         1 JRJ       0.072200
     39 H101         2.7060     0.9720    -1.6700 h1         1 JRJ       0.091700
     40 H102         2.6020    -0.7490    -2.0650 h1         1 JRJ       0.091700
@<TRIPOS>BOND
     1     1     2 1   
     2     1    26 1   
     3     1    27 1   
     4     2     3 1   
     5     2    28 1   
     6     2    29 1   
     7     3     4 1   
     8     3    30 1   
     9     3    31 1   
    10     4     5 1   
    11     4    32 1   
    12     4    33 1   
    13     5     6 1   
    14     5    34 1   
    15     5    35 1   
    16     6     7 1   
    17     6    25 1   
    18     7     8 2   
    19     7    36 1   
    20     8     9 1   
    21     8    24 1   
    22     9    10 1   
    23     9    37 1   
    24     9    38 1   
    25    10    11 1   
    26    10    39 1   
    27    10    40 1   
    28    11    12 1   
    29    11    23 1   
    30    12    13 2   
    31    13    14 ar  
    32    13    22 ar  
    33    14    15 1   
    34    14    16 ar  
    35    16    17 1   
    36    16    18 ar  
    37    18    19 1   
    38    18    20 ar  
    39    20    21 1   
    40    20    22 ar  
    41    22    23 2   
    42    24    25 2   
@<TRIPOS>SUBSTRUCTURE
     1 JRJ         1 TEMP              0 ****  ****    0 ROOT
