@<TRIPOS>MOLECULE
JRJ
   40    42     1     0     0
SMALL
No Charge or Current Charge


@<TRIPOS>ATOM
      1 N01         12.7280     0.4110     1.6680 n8         1 JRJ      -0.996200
      2 C02         11.3610    -0.1400     1.6250 c3         1 JRJ       0.151800
      3 C03         10.5470     0.4580     0.4590 c3         1 JRJ      -0.077400
      4 C04          9.1090    -0.1020     0.3820 c3         1 JRJ      -0.097400
      5 C05          8.2910     0.4920    -0.7860 c3         1 JRJ       0.080600
      6 N06          6.9200    -0.0380    -0.8580 na         1 JRJ       0.128800
      7 C07          5.8300     0.3750    -0.1360 cc         1 JRJ      -0.201000
      8 C08          4.8310    -0.4410    -0.5820 cd         1 JRJ       0.188300
      9 C09          3.3900    -0.4640    -0.1550 c3         1 JRJ      -0.105700
     10 C10          2.4440     0.0510    -1.2640 c3         1 JRJ       0.086600
     11 N11          1.0290     0.0510    -0.8680 na         1 JRJ       0.334800
     12 N12          0.4500     1.1530    -0.2490 nc         1 JRJ      -0.227400
     13 C13         -0.8310     0.6840    -0.0750 ca         1 JRJ      -0.105500
     14 C14         -1.9130     1.3600     0.5140 ca         1 JRJ       0.048600
     15 Br1         -1.6730     3.1470     1.1800 br         1 JRJ      -0.017600
     16 C16         -3.1620     0.7010     0.6020 ca         1 JRJ       0.007600
     17 Br2         -4.6660     1.5990     1.4030 br         1 JRJ      -0.027100
     18 C18         -3.3030    -0.6180     0.1000 ca         1 JRJ       0.007600
     19 Br3         -4.9990    -1.5230     0.2150 br         1 JRJ      -0.027100
     20 C20         -2.1940    -1.2710    -0.4870 ca         1 JRJ       0.048600
     21 Br4         -2.3340    -3.0590    -1.1800 br         1 JRJ      -0.017600
     22 C22         -0.9670    -0.5900    -0.5590 ca         1 JRJ      -0.105500
     23 N23          0.2150    -1.0540    -1.0880 nc         1 JRJ      -0.227400
     24 N24          5.3320    -1.3020    -1.5340 nd         1 JRJ      -0.356000
     25 N25          6.6040    -1.0590    -1.7040 nc         1 JRJ      -0.196800
     26 H011        12.6760     1.4190     1.8620 hn         1 JRJ       0.394500
     27 H012        13.2150     0.0340     2.4900 hn         1 JRJ       0.394500
     28 H021        11.4250    -1.2310     1.5110 h1         1 JRJ       0.030200
     29 H022        10.8610     0.0810     2.5790 h1         1 JRJ       0.030200
     30 H031        10.5030     1.5490     0.5690 hc         1 JRJ       0.048700
     31 H032        11.0650     0.2500    -0.4860 hc         1 JRJ       0.048700
     32 H041         9.1500    -1.1930     0.2710 hc         1 JRJ       0.059700
     33 H042         8.5880     0.1050     1.3260 hc         1 JRJ       0.059700
     34 H051         8.2320     1.5820    -0.6750 h1         1 JRJ       0.069200
     35 H052         8.8000     0.2810    -1.7350 h1         1 JRJ       0.069200
     36 H07          5.8490     1.1710     0.5960 h4         1 JRJ       0.170000
     37 H091         3.1030    -1.4860     0.1200 hc         1 JRJ       0.072200
     38 H092         3.2600     0.1500     0.7440 hc         1 JRJ       0.072200
     39 H101         2.7240     1.0750    -1.5380 h1         1 JRJ       0.091700
     40 H102         2.5500    -0.5740    -2.1580 h1         1 JRJ       0.091700
@<TRIPOS>BOND
     1     1     2 1   
     2     1    26 1   
     3     1    27 1   
     4     2     3 1   
     5     2    28 1   
     6     2    29 1   
     7     3     4 1   
     8     3    30 1   
     9     3    31 1   
    10     4     5 1   
    11     4    32 1   
    12     4    33 1   
    13     5     6 1   
    14     5    34 1   
    15     5    35 1   
    16     6     7 1   
    17     6    25 1   
    18     7     8 2   
    19     7    36 1   
    20     8     9 1   
    21     8    24 1   
    22     9    10 1   
    23     9    37 1   
    24     9    38 1   
    25    10    11 1   
    26    10    39 1   
    27    10    40 1   
    28    11    12 1   
    29    11    23 1   
    30    12    13 2   
    31    13    14 ar  
    32    13    22 ar  
    33    14    15 1   
    34    14    16 ar  
    35    16    17 1   
    36    16    18 ar  
    37    18    19 1   
    38    18    20 ar  
    39    20    21 1   
    40    20    22 ar  
    41    22    23 2   
    42    24    25 2   
@<TRIPOS>SUBSTRUCTURE
     1 JRJ         1 TEMP              0 ****  ****    0 ROOT
