@<TRIPOS>MOLECULE
JRL
   49    53     1     0     0
SMALL
No Charge or Current Charge


@<TRIPOS>ATOM
      1 C6          29.7910   -45.1230   -13.9090 c          1 JRL       0.637700
      2 C10         29.3360   -46.3950   -11.8000 cc         1 JRL       0.518900
      3 N12         28.9060   -43.1350   -16.9900 nc         1 JRL      -0.513800
      4 C13         27.7180   -43.3490   -16.4830 cd         1 JRL       0.261900
      5 C21         32.4540   -49.0870    -7.7760 ca         1 JRL      -0.021800
      6 C22         23.3480   -44.0030   -14.7110 cy         1 JRL      -0.116400
      7 C24         24.5890   -43.2190   -14.1770 cy         1 JRL       0.100500
      8 C26         33.8300   -48.7800    -7.8830 ca         1 JRL      -0.086500
      9 C28         34.7690   -49.3740    -7.0230 ca         1 JRL      -0.118000
     10 C1          27.7270   -44.0970   -15.2800 cd         1 JRL      -0.257600
     11 C2          29.0830   -44.3760   -15.0150 cc         1 JRL      -0.157600
     12 C3          30.6870   -47.3980   -10.3630 cd         1 JRL       0.422500
     13 N4          30.6090   -46.6640   -11.5270 nd         1 JRL      -0.660000
     14 N5          31.8360   -47.7890    -9.8500 nc         1 JRL      -0.271600
     15 N7          29.6640   -47.8270    -9.5610 na         1 JRL      -0.089400
     16 C9          31.4880   -48.4750    -8.7020 cc         1 JRL       0.136400
     17 N11         29.7380   -43.7590   -16.0970 na         1 JRL       0.182800
     18 C14         30.1250   -48.5180    -8.4700 cd         1 JRL      -0.271100
     19 N15         29.0110   -45.6700   -12.9240 ns         1 JRL      -0.497400
     20 C16         28.2050   -46.8040   -10.9910 cc         1 JRL      -0.229000
     21 N17         25.3540   -43.8980   -15.2760 nj         1 JRL      -0.400800
     22 C18         28.3350   -47.5410    -9.8230 cd         1 JRL      -0.052000
     23 O19         31.0080   -45.2310   -13.9010 o          1 JRL      -0.530100
     24 O20         26.4950   -45.0920   -13.5090 o          1 JRL      -0.653100
     25 C23         24.3800   -45.0410   -15.2580 cy         1 JRL       0.100500
     26 C25         31.1870   -43.7180   -16.3610 c3         1 JRL       0.068900
     27 C27         32.0480   -50.0280    -6.8010 ca         1 JRL      -0.086500
     28 C29         32.9900   -50.6220    -5.9420 ca         1 JRL      -0.118000
     29 C30         34.3500   -50.2940    -6.0500 ca         1 JRL      -0.105000
     30 H1          26.8670   -42.9460   -17.0170 h4         1 JRL       0.044100
     31 H3          22.6520   -44.3740   -13.9520 hc         1 JRL       0.066200
     32 H4          24.8520   -43.4590   -13.1390 h1         1 JRL       0.061950
     33 H5          24.5190   -42.1330   -14.3060 h1         1 JRL       0.061950
     34 H6          34.1770   -48.0710    -8.6310 ha         1 JRL       0.122000
     35 H7          35.8230   -49.1220    -7.1130 ha         1 JRL       0.111000
     36 H8          29.5090   -48.9370    -7.6820 h4         1 JRL       0.231000
     37 H9          28.0270   -45.5040   -13.0590 hn         1 JRL       0.383500
     38 H10         27.2130   -46.5160   -11.3200 ha         1 JRL       0.154000
     39 H11         27.5500   -47.8860    -9.1580 h4         1 JRL       0.147000
     40 H12         24.1420   -45.4200   -16.2580 h1         1 JRL       0.061950
     41 H13         24.5740   -45.8760   -14.5740 h1         1 JRL       0.061950
     42 H14         31.3880   -43.1610   -17.2850 h1         1 JRL       0.073367
     43 H15         31.6980   -43.2210   -15.5290 h1         1 JRL       0.073367
     44 H16         31.5700   -44.7390   -16.4710 h1         1 JRL       0.073367
     45 H17         31.0040   -50.3130    -6.7040 ha         1 JRL       0.122000
     46 H18         32.6630   -51.3410    -5.1940 ha         1 JRL       0.111000
     47 H19         35.0770   -50.7550    -5.3850 ha         1 JRL       0.110000
     48 C8          26.4600   -44.4450   -14.5470 c          1 JRL       0.670700
     49 H2          22.7850   -43.4770   -15.4890 hc         1 JRL       0.066200
@<TRIPOS>BOND
     1     1    11 1   
     2     1    19 1   
     3     1    23 2   
     4     2    13 2   
     5     2    19 1   
     6     2    20 1   
     7     3     4 2   
     8     3    17 1   
     9     4    10 1   
    10     4    30 1   
    11     5     8 ar  
    12     5    16 1   
    13     5    27 ar  
    14     6     7 1   
    15     6    25 1   
    16     6    31 1   
    17     6    49 1   
    18     7    21 1   
    19     7    32 1   
    20     7    33 1   
    21     8     9 ar  
    22     8    34 1   
    23     9    29 ar  
    24     9    35 1   
    25    10    11 2   
    26    10    48 1   
    27    11    17 1   
    28    12    13 1   
    29    12    14 2   
    30    12    15 1   
    31    14    16 1   
    32    15    18 1   
    33    15    22 1   
    34    16    18 2   
    35    17    26 1   
    36    18    36 1   
    37    19    37 1   
    38    20    22 2   
    39    20    38 1   
    40    21    25 1   
    41    21    48 1   
    42    22    39 1   
    43    24    48 2   
    44    25    40 1   
    45    25    41 1   
    46    26    42 1   
    47    26    43 1   
    48    26    44 1   
    49    27    28 ar  
    50    27    45 1   
    51    28    29 ar  
    52    28    46 1   
    53    29    47 1   
@<TRIPOS>SUBSTRUCTURE
     1 JRL         1 TEMP              0 ****  ****    0 ROOT
