@<TRIPOS>MOLECULE
JRL
   49    53     1     0     0
SMALL
bcc


@<TRIPOS>ATOM
      1 C6          29.6620   -45.1510   -13.7580 c          1 JRL       0.704700
      2 C10         29.2370   -46.9500   -12.1270 cc         1 JRL       0.584200
      3 N12         28.9640   -43.1290   -16.6780 nc         1 JRL      -0.513800
      4 C13         27.7230   -43.4700   -16.4060 cd         1 JRL       0.327200
      5 C21         32.4250   -49.0070    -7.7600 ca         1 JRL      -0.021800
      6 C22         23.6270   -43.1060   -14.3560 cy         1 JRL      -0.116400
      7 C24         24.9980   -42.8360   -15.0040 cy         1 JRL       0.100500
      8 C26         33.7120   -48.4710    -7.8250 ca         1 JRL      -0.104500
      9 C28         34.6630   -48.7980    -6.8690 ca         1 JRL      -0.136000
     10 C1          27.6640   -44.3230   -15.2960 cd         1 JRL      -0.322900
     11 C2          28.9970   -44.4650   -14.9030 cc         1 JRL      -0.106900
     12 C3          30.6070   -47.6610   -10.4740 cd         1 JRL       0.422500
     13 N4          30.4020   -46.8890   -11.5470 nd         1 JRL      -0.660000
     14 N5          31.6950   -47.7420    -9.7490 nc         1 JRL      -0.271600
     15 N7          29.6270   -48.5140    -9.9850 na         1 JRL      -0.140100
     16 C9          31.4270   -48.6560    -8.7710 cc         1 JRL       0.136400
     17 N11         29.7200   -43.7160   -15.7640 na         1 JRL       0.161400
     18 C14         30.1520   -49.1520    -8.8940 cd         1 JRL      -0.221100
     19 N15         28.9430   -46.1830   -13.2370 ns         1 JRL      -0.564400
     20 C16         28.1890   -47.8120   -11.6720 cc         1 JRL      -0.312300
     21 N17         25.3290   -44.2460   -14.7910 nj         1 JRL      -0.467800
     22 C18         28.4160   -48.5890   -10.5900 cd         1 JRL      -0.019300
     23 O19         30.7460   -44.7800   -13.3630 o          1 JRL      -0.530100
     24 O20         26.4600   -46.0950   -14.2680 o          1 JRL      -0.653100
     25 C23         24.0410   -44.5820   -14.1970 cy         1 JRL       0.100500
     26 C25         31.1540   -43.4950   -15.8320 c3         1 JRL       0.039600
     27 C27         32.1150   -49.8760    -6.7110 ca         1 JRL      -0.104500
     28 C29         33.0660   -50.2020    -5.7580 ca         1 JRL      -0.136000
     29 C30         34.3460   -49.6640    -5.8320 ca         1 JRL      -0.123000
     30 H1          26.9180   -43.1250   -17.0350 h4         1 JRL       0.044100
     31 H3          23.4660   -42.5830   -13.4170 hc         1 JRL       0.066200
     32 H4          25.6550   -42.1480   -14.4710 h1         1 JRL       0.061950
     33 H5          24.9550   -42.5480   -16.0540 h1         1 JRL       0.061950
     34 H6          33.9680   -47.7960    -8.6300 ha         1 JRL       0.140000
     35 H7          35.6560   -48.3730    -6.9360 ha         1 JRL       0.129000
     36 H8          29.5870   -49.8750    -8.3310 h4         1 JRL       0.181000
     37 H9          28.0180   -46.3520   -13.6620 hn         1 JRL       0.383500
     38 H10         27.2300   -47.8430   -12.1670 ha         1 JRL       0.172000
     39 H11         27.6870   -49.2670   -10.1700 h4         1 JRL       0.165000
     40 H12         23.4660   -45.2990   -14.7840 h1         1 JRL       0.061950
     41 H13         24.1190   -44.9450   -13.1710 h1         1 JRL       0.061950
     42 H14         31.3510   -43.0240   -16.7890 h1         1 JRL       0.073367
     43 H15         31.4870   -42.8410   -15.0320 h1         1 JRL       0.073367
     44 H16         31.6950   -44.4350   -15.7790 h1         1 JRL       0.073367
     45 H17         31.1230   -50.3030    -6.6290 ha         1 JRL       0.140000
     46 H18         32.8070   -50.8770    -4.9520 ha         1 JRL       0.129000
     47 H19         35.0870   -49.9180    -5.0860 ha         1 JRL       0.128000
     48 C8          26.4510   -44.9510   -14.7410 c          1 JRL       0.737700
     49 H2          22.7760   -42.9380   -15.0110 hc         1 JRL       0.066200
@<TRIPOS>BOND
     1     1    11 1   
     2     1    19 1   
     3     1    23 2   
     4     2    13 2   
     5     2    19 1   
     6     2    20 1   
     7     3     4 2   
     8     3    17 1   
     9     4    10 1   
    10     4    30 1   
    11     5     8 ar  
    12     5    16 1   
    13     5    27 ar  
    14     6     7 1   
    15     6    25 1   
    16     6    31 1   
    17     6    49 1   
    18     7    21 1   
    19     7    32 1   
    20     7    33 1   
    21     8     9 ar  
    22     8    34 1   
    23     9    29 ar  
    24     9    35 1   
    25    10    11 2   
    26    10    48 1   
    27    11    17 1   
    28    12    13 1   
    29    12    14 2   
    30    12    15 1   
    31    14    16 1   
    32    15    18 1   
    33    15    22 1   
    34    16    18 2   
    35    17    26 1   
    36    18    36 1   
    37    19    37 1   
    38    20    22 2   
    39    20    38 1   
    40    21    25 1   
    41    21    48 1   
    42    22    39 1   
    43    24    48 2   
    44    25    40 1   
    45    25    41 1   
    46    26    42 1   
    47    26    43 1   
    48    26    44 1   
    49    27    28 ar  
    50    27    45 1   
    51    28    29 ar  
    52    28    46 1   
    53    29    47 1   
@<TRIPOS>SUBSTRUCTURE
     1 JRL         1 TEMP              0 ****  ****    0 ROOT
