@<TRIPOS>MOLECULE
JRM
   37    38     1     0     0
SMALL
No Charge or Current Charge


@<TRIPOS>ATOM
      1 N1           0.9980    -0.2950    -0.2900 nc         1 JRM      -0.645000
      2 C2          -0.7680    -4.2230     0.8820 c3         1 JRM      -0.079100
      3 C5          -2.6560     0.1500    -0.8750 c3         1 JRM       0.042000
      4 C12          5.5920     1.1780     0.6570 ca         1 JRM      -0.115500
      5 C15          3.8900    -0.5230    -0.7860 ca         1 JRM      -0.086500
      6 C6          -3.6520     0.5030     0.2440 c          1 JRM       0.574100
      7 N           -1.4170    -0.5720    -0.4190 n          1 JRM      -0.391300
      8 C           -1.5200    -1.9790    -0.2430 c          1 JRM       0.623100
      9 C1          -0.3860    -2.7990     0.4150 c3         1 JRM      -0.151400
     10 O           -2.5410    -2.5590    -0.5950 o          1 JRM      -0.568100
     11 C8          -0.2420     0.1440    -0.1680 cd         1 JRM       0.529300
     12 S1          -0.4220     1.8520     0.2700 ss         1 JRM       0.021600
     13 C16          1.3280     1.9420     0.3150 cd         1 JRM      -0.274000
     14 C9           1.8690     0.7190     0.0050 cc         1 JRM       0.351500
     15 C10          3.3300     0.5450    -0.0480 ca         1 JRM      -0.123500
     16 C14          5.2810    -0.7250    -0.8180 ca         1 JRM      -0.115500
     17 C13          6.1340     0.1280    -0.1010 ca         1 JRM      -0.101000
     18 C11          4.2010     1.3820     0.6900 ca         1 JRM      -0.086500
     19 H3           0.0940    -4.7180     1.3450 hc         1 JRM       0.043367
     20 H4          -1.5780    -4.1850     1.6210 hc         1 JRM       0.043367
     21 H9          -3.2010    -0.4550    -1.6100 h1         1 JRM       0.095700
     22 H6          -2.3980     1.0800    -1.3970 h1         1 JRM       0.095700
     23 H15          6.2500     1.8320     1.2250 ha         1 JRM       0.114000
     24 H18          3.2480    -1.1980    -1.3480 ha         1 JRM       0.120500
     25 H1           0.0380    -2.2170     1.2410 hc         1 JRM       0.071700
     26 H8           0.4460    -2.8460    -0.2970 hc         1 JRM       0.071700
     27 H19          1.8280     2.8740     0.5440 h4         1 JRM       0.164000
     28 H17          5.6970    -1.5450    -1.3990 ha         1 JRM       0.114000
     29 H16          7.2100    -0.0290    -0.1240 ha         1 JRM       0.114000
     30 H14          3.8100     2.1900     1.3040 ha         1 JRM       0.120500
     31 O1          -3.4630     0.2740     1.4330 o          1 JRM      -0.487000
     32 O2          -4.7580     1.1430    -0.2520 os         1 JRM      -0.435100
     33 C7          -5.7790     1.5520     0.6770 c3         1 JRM       0.152900
     34 H10         -1.0990    -4.8370     0.0350 hc         1 JRM       0.043367
     35 H2          -6.6020     2.0470     0.1470 h1         1 JRM       0.051033
     36 H5          -6.1910     0.6870     1.2130 h1         1 JRM       0.051033
     37 H7          -5.3770     2.2590     1.4150 h1         1 JRM       0.051033
@<TRIPOS>BOND
     1     1    11 2   
     2     1    14 1   
     3     2     9 1   
     4     2    19 1   
     5     2    20 1   
     6     2    34 1   
     7     3     6 1   
     8     3     7 1   
     9     3    21 1   
    10     3    22 1   
    11     4    17 ar  
    12     4    18 ar  
    13     4    23 1   
    14     5    15 ar  
    15     5    16 ar  
    16     5    24 1   
    17     6    31 2   
    18     6    32 1   
    19     7     8 1   
    20     7    11 1   
    21     8     9 1   
    22     8    10 2   
    23     9    25 1   
    24     9    26 1   
    25    11    12 1   
    26    12    13 1   
    27    13    14 2   
    28    13    27 1   
    29    14    15 1   
    30    15    18 ar  
    31    16    17 ar  
    32    16    28 1   
    33    17    29 1   
    34    18    30 1   
    35    32    33 1   
    36    33    35 1   
    37    33    36 1   
    38    33    37 1   
@<TRIPOS>SUBSTRUCTURE
     1 JRM         1 TEMP              0 ****  ****    0 ROOT
