@<TRIPOS>MOLECULE
JRM
   37    38     1     0     0
SMALL
bcc


@<TRIPOS>ATOM
      1 N1           0.9840    -0.1460    -0.2930 nc         1 JRM      -0.645000
      2 C2          -1.0210    -4.1360     1.0630 c3         1 JRM      -0.079100
      3 C5          -2.3580     0.1540    -0.9850 c3         1 JRM       0.042000
      4 C12          5.5600     1.4280     0.1390 ca         1 JRM      -0.133500
      5 C15          3.7830    -0.4930    -0.7740 ca         1 JRM      -0.104500
      6 C6          -3.4460     0.5290    -0.0010 c          1 JRM       0.623100
      7 N           -1.3320    -0.6390    -0.3500 n          1 JRM      -0.458300
      8 C           -1.6180    -1.9550    -0.0550 c          1 JRM       0.690100
      9 C1          -0.5690    -2.7320     0.7020 c3         1 JRM      -0.151400
     10 O           -2.6730    -2.4340    -0.4140 o          1 JRM      -0.568100
     11 C8          -0.2110     0.0110     0.1600 cd         1 JRM       0.529300
     12 S1          -0.3380     1.1190     1.4840 ss         1 JRM      -0.123300
     13 C16          1.3470     1.3760     1.3870 cd         1 JRM      -0.212400
     14 C9           1.8910     0.6140     0.3930 cc         1 JRM       0.416800
     15 C10          3.3120     0.5480     0.0270 ca         1 JRM      -0.123500
     16 C14          5.1260    -0.5740    -1.1100 ca         1 JRM      -0.133500
     17 C13          6.0210     0.3850    -0.6550 ca         1 JRM      -0.119000
     18 C11          4.2180     1.5110     0.4750 ca         1 JRM      -0.104500
     19 H3          -0.2180    -4.6560     1.5830 hc         1 JRM       0.043367
     20 H4          -1.8900    -4.1240     1.7200 hc         1 JRM       0.043367
     21 H9          -2.7770    -0.3770    -1.8390 h1         1 JRM       0.095700
     22 H6          -1.9110     1.0690    -1.3780 h1         1 JRM       0.095700
     23 H15          6.2470     2.1860     0.4930 ha         1 JRM       0.132000
     24 H18          3.0950    -1.2480    -1.1330 ha         1 JRM       0.138500
     25 H1          -0.2950    -2.1800     1.6060 hc         1 JRM       0.071700
     26 H8           0.3400    -2.7660     0.0970 hc         1 JRM       0.071700
     27 H19          1.8430     2.0550     2.0620 h4         1 JRM       0.182000
     28 H17          5.4740    -1.3910    -1.7280 ha         1 JRM       0.132000
     29 H16          7.0690     0.3230    -0.9190 ha         1 JRM       0.132000
     30 H14          3.8790     2.3430     1.0790 ha         1 JRM       0.138500
     31 O1          -3.3310     0.4230     1.1930 o          1 JRM      -0.536000
     32 O2          -4.5030     1.0160    -0.6170 os         1 JRM      -0.411900
     33 C7          -5.5930     1.4730     0.1900 c3         1 JRM       0.129700
     34 H10         -1.2750    -4.7190     0.1790 hc         1 JRM       0.043367
     35 H2          -6.3390     1.8480    -0.5040 h1         1 JRM       0.051033
     36 H5          -6.0180     0.6590     0.7750 h1         1 JRM       0.051033
     37 H7          -5.2800     2.2760     0.8570 h1         1 JRM       0.051033
@<TRIPOS>BOND
     1     1    11 2   
     2     1    14 1   
     3     2     9 1   
     4     2    19 1   
     5     2    20 1   
     6     2    34 1   
     7     3     6 1   
     8     3     7 1   
     9     3    21 1   
    10     3    22 1   
    11     4    17 ar  
    12     4    18 ar  
    13     4    23 1   
    14     5    15 ar  
    15     5    16 ar  
    16     5    24 1   
    17     6    31 2   
    18     6    32 1   
    19     7     8 1   
    20     7    11 1   
    21     8     9 1   
    22     8    10 2   
    23     9    25 1   
    24     9    26 1   
    25    11    12 1   
    26    12    13 1   
    27    13    14 2   
    28    13    27 1   
    29    14    15 1   
    30    15    18 ar  
    31    16    17 ar  
    32    16    28 1   
    33    17    29 1   
    34    18    30 1   
    35    32    33 1   
    36    33    35 1   
    37    33    36 1   
    38    33    37 1   
@<TRIPOS>SUBSTRUCTURE
     1 JRM         1 TEMP              0 ****  ****    0 ROOT
