@<TRIPOS>MOLECULE
JRO
   29    31     1     0     0
SMALL
No Charge or Current Charge


@<TRIPOS>ATOM
      1 CAA         -4.9710     1.7700    -0.0980 c3         1 JRO      -0.053900
      2 OAB         -2.9340    -2.4180     0.2790 o          1 JRO      -0.488000
      3 OAC          4.8430     0.8150    -0.1710 oh         1 JRO      -0.522100
      4 OAD          2.0820    -3.0430     0.2590 oh         1 JRO      -0.522100
      5 OAE          2.6800     2.4590    -0.2970 oh         1 JRO      -0.557100
      6 CAF          3.4670    -1.1220     0.0450 ca         1 JRO      -0.255000
      7 CAG         -2.4400     1.5820    -0.1230 cc         1 JRO      -0.278200
      8 CAH          0.0190     1.3380    -0.1410 ca         1 JRO      -0.133000
      9 CAI         -0.2550    -1.4320     0.1380 ca         1 JRO       0.027000
     10 OAJ         -3.8680    -0.3690     0.0890 os         1 JRO      -0.348200
     11 CAK         -3.6840     0.9920    -0.0410 cd         1 JRO       0.142900
     12 CAL          3.6050     0.2600    -0.0950 ca         1 JRO       0.201100
     13 CAM          2.1900    -1.6890     0.1230 ca         1 JRO       0.203100
     14 CAN          2.4790     1.1020    -0.1590 ca         1 JRO      -0.064900
     15 CAO         -2.7750    -1.2110     0.1580 c          1 JRO       0.689700
     16 CAP         -1.2580     0.7590    -0.0620 ca         1 JRO       0.032200
     17 CAQ          1.0390    -0.8680     0.0610 ca         1 JRO      -0.110000
     18 CAR          1.1800     0.5350    -0.0810 ca         1 JRO       0.047000
     19 CAS         -1.4020    -0.6140     0.0770 ca         1 JRO      -0.224600
     20 HAA         -5.8110     1.1880     0.2980 hc         1 JRO       0.063033
     21 HAAA        -4.8990     2.6920     0.4910 hc         1 JRO       0.063033
     22 HAAB        -5.2120     2.0480    -1.1300 hc         1 JRO       0.063033
     23 HOAC         4.6790     1.7800    -0.2640 ho         1 JRO       0.485000
     24 HOAD         2.9850    -3.4230     0.2810 ho         1 JRO       0.476000
     25 HOAE         1.8140     2.9190    -0.3280 ho         1 JRO       0.453000
     26 HAF          4.3560    -1.7450     0.0920 ha         1 JRO       0.136000
     27 HAG         -2.3700     2.6610    -0.2310 ha         1 JRO       0.201000
     28 HAH          0.0900     2.4150    -0.2490 ha         1 JRO       0.126000
     29 HAI         -0.3720    -2.5090     0.2470 ha         1 JRO       0.150000
@<TRIPOS>BOND
     1     1    11 1   
     2     1    20 1   
     3     1    21 1   
     4     1    22 1   
     5     2    15 2   
     6     3    12 1   
     7     3    23 1   
     8     4    13 1   
     9     4    24 1   
    10     5    14 1   
    11     5    25 1   
    12     6    12 ar  
    13     6    13 ar  
    14     6    26 1   
    15     7    11 2   
    16     7    16 1   
    17     7    27 1   
    18     8    16 ar  
    19     8    18 ar  
    20     8    28 1   
    21     9    17 ar  
    22     9    19 ar  
    23     9    29 1   
    24    10    11 1   
    25    10    15 1   
    26    12    14 ar  
    27    13    17 ar  
    28    14    18 ar  
    29    15    19 1   
    30    16    19 ar  
    31    17    18 ar  
@<TRIPOS>SUBSTRUCTURE
     1 JRO         1 TEMP              0 ****  ****    0 ROOT
