@<TRIPOS>MOLECULE
JRO
   29    31     1     0     0
SMALL
abcg2


@<TRIPOS>ATOM
      1 CAA         -4.9820     1.6790    -0.0600 c3         1 JRO      -0.053900
      2 OAB         -2.9650    -2.3820     0.1220 o          1 JRO      -0.488000
      3 OAC          4.7980     0.8010    -0.0590 oh         1 JRO      -0.522100
      4 OAD          1.9840    -2.9880     0.1610 oh         1 JRO      -0.522100
      5 OAE          2.6390     2.4860    -0.0950 oh         1 JRO      -0.557100
      6 CAF          3.4180    -1.0910     0.0590 ca         1 JRO      -0.255000
      7 CAG         -2.4650     1.5980    -0.0510 cc         1 JRO      -0.278200
      8 CAH         -0.0040     1.3710    -0.0490 ca         1 JRO      -0.133000
      9 CAI         -0.2790    -1.4070     0.0750 ca         1 JRO       0.027000
     10 OAJ         -3.7790    -0.3560     0.0300 os         1 JRO      -0.348200
     11 CAK         -3.6620     1.0020    -0.0270 cd         1 JRO       0.142900
     12 CAL          3.5530     0.3120    -0.0260 ca         1 JRO       0.201100
     13 CAM          2.1770    -1.6640     0.0900 ca         1 JRO       0.203100
     14 CAN          2.4460     1.1290    -0.0650 ca         1 JRO      -0.064900
     15 CAO         -2.7240    -1.2030     0.0690 c          1 JRO       0.689700
     16 CAP         -1.2610     0.8110    -0.0220 ca         1 JRO       0.032200
     17 CAQ          1.0040    -0.8510     0.0460 ca         1 JRO      -0.110000
     18 CAR          1.1530     0.5670    -0.0250 ca         1 JRO       0.047000
     19 CAS         -1.3960    -0.6000     0.0400 ca         1 JRO      -0.224600
     20 HAA         -5.5640     1.4500     0.8350 hc         1 JRO       0.063033
     21 HAAA        -4.8510     2.7570    -0.1160 hc         1 JRO       0.063033
     22 HAAB        -5.5670     1.3570    -0.9230 hc         1 JRO       0.063033
     23 HOAC         4.7650     1.7660    -0.1070 ho         1 JRO       0.485000
     24 HOAD         2.8280    -3.4550     0.1900 ho         1 JRO       0.476000
     25 HOAE         2.4000     2.8360    -0.9620 ho         1 JRO       0.453000
     26 HAF          4.3140    -1.7020     0.0920 ha         1 JRO       0.136000
     27 HAG         -2.4100     2.6770    -0.0960 ha         1 JRO       0.201000
     28 HAH          0.0910     2.4490    -0.0860 ha         1 JRO       0.126000
     29 HAI         -0.4020    -2.4800     0.1270 ha         1 JRO       0.150000
@<TRIPOS>BOND
     1     1    11 1   
     2     1    20 1   
     3     1    21 1   
     4     1    22 1   
     5     2    15 2   
     6     3    12 1   
     7     3    23 1   
     8     4    13 1   
     9     4    24 1   
    10     5    14 1   
    11     5    25 1   
    12     6    12 ar  
    13     6    13 ar  
    14     6    26 1   
    15     7    11 2   
    16     7    16 1   
    17     7    27 1   
    18     8    16 ar  
    19     8    18 ar  
    20     8    28 1   
    21     9    17 ar  
    22     9    19 ar  
    23     9    29 1   
    24    10    11 1   
    25    10    15 1   
    26    12    14 ar  
    27    13    17 ar  
    28    14    18 ar  
    29    15    19 1   
    30    16    19 ar  
    31    17    18 ar  
@<TRIPOS>SUBSTRUCTURE
     1 JRO         1 TEMP              0 ****  ****    0 ROOT
