@<TRIPOS>MOLECULE
JRP
   29    32     1     0     0
SMALL
bcc


@<TRIPOS>ATOM
      1 C10         -7.1400    -7.0780    11.9320 cy         1 JRP       0.198100
      2 C13         -6.6810    -8.3180    11.1080 cy         1 JRP      -0.106700
      3 C15         -8.8690    -7.6020    10.5280 c5         1 JRP       0.122400
      4 C02         -6.6800    -7.7780    14.4240 c          1 JRP       0.730500
      5 C04         -5.4890    -5.8920    13.3900 ca         1 JRP       0.098600
      6 C05         -4.5350    -4.8960    13.5940 ca         1 JRP      -0.184000
      7 C06         -4.2480    -3.9910    12.5880 ca         1 JRP      -0.086000
      8 C07         -4.9080    -4.0690    11.3680 ca         1 JRP      -0.164000
      9 C08         -5.8540    -5.0630    11.1690 ca         1 JRP      -0.066000
     10 C09         -6.1520    -5.9840    12.1680 ca         1 JRP      -0.112300
     11 C11         -7.4290    -8.0010    13.1430 cy         1 JRP      -0.186700
     12 C12         -6.9420    -9.2260    12.3260 cy         1 JRP      -0.062400
     13 C14         -7.6890    -8.3920     9.9730 c5         1 JRP      -0.105400
     14 N03         -5.7640    -6.7800    14.4300 ns         1 JRP      -0.469100
     15 O01         -6.8700    -8.4740    15.4060 o          1 JRP      -0.619500
     16 O16         -8.2870    -6.5660    11.3060 os         1 JRP      -0.382600
     17 H131        -5.6470    -8.3050    10.7650 hc         1 JRP       0.081700
     18 H151        -9.4940    -7.1450     9.7610 h1         1 JRP       0.050700
     19 H152        -9.5120    -8.2420    11.1470 h1         1 JRP       0.050700
     20 H051        -4.0240    -4.8300    14.5470 ha         1 JRP       0.135000
     21 H061        -3.5070    -3.2210    12.7610 ha         1 JRP       0.133000
     22 H071        -4.6890    -3.3620    10.5800 ha         1 JRP       0.136000
     23 H081        -6.3690    -5.1280    10.2200 ha         1 JRP       0.142000
     24 H111        -8.4920    -8.0460    13.3910 hc         1 JRP       0.099700
     25 H121        -7.7010    -9.9940    12.1750 hc         1 JRP       0.062700
     26 H122        -6.0470    -9.7050    12.7220 hc         1 JRP       0.062700
     27 H141        -7.9590    -9.4140     9.7060 hc         1 JRP       0.059200
     28 H142        -7.2910    -7.9030     9.0810 hc         1 JRP       0.059200
     29 H031        -5.2540    -6.6500    15.2930 hn         1 JRP       0.324500
@<TRIPOS>BOND
     1     1     2 1   
     2     1    10 1   
     3     1    11 1   
     4     1    16 1   
     5     2    12 1   
     6     2    13 1   
     7     2    17 1   
     8     3    13 1   
     9     3    16 1   
    10     3    18 1   
    11     3    19 1   
    12     4    11 1   
    13     4    14 1   
    14     4    15 2   
    15     5     6 ar  
    16     5    10 ar  
    17     5    14 1   
    18     6     7 ar  
    19     6    20 1   
    20     7     8 ar  
    21     7    21 1   
    22     8     9 ar  
    23     8    22 1   
    24     9    10 ar  
    25     9    23 1   
    26    11    12 1   
    27    11    24 1   
    28    12    25 1   
    29    12    26 1   
    30    13    27 1   
    31    13    28 1   
    32    14    29 1   
@<TRIPOS>SUBSTRUCTURE
     1 JRP         1 TEMP              0 ****  ****    0 ROOT
