@<TRIPOS>MOLECULE
JRP
   29    32     1     0     0
SMALL
No Charge or Current Charge


@<TRIPOS>ATOM
      1 C10         -7.2600    -7.0620    12.0850 cy         1 JRP       0.221300
      2 C13         -6.7740    -8.4010    11.4710 cy         1 JRP      -0.106700
      3 C15         -8.6080    -7.6520    10.2260 c5         1 JRP       0.145600
      4 C02         -6.3840    -8.0070    14.2540 c          1 JRP       0.588000
      5 C04         -5.3870    -5.9150    13.2880 ca         1 JRP       0.006000
      6 C05         -4.4270    -4.9020    13.4480 ca         1 JRP      -0.166000
      7 C06         -4.3420    -3.8660    12.5030 ca         1 JRP      -0.068000
      8 C07         -5.2090    -3.8590    11.3980 ca         1 JRP      -0.146000
      9 C08         -6.1610    -4.8820    11.2410 ca         1 JRP      -0.048000
     10 C09         -6.2580    -5.9150    12.2010 ca         1 JRP      -0.112300
     11 C11         -7.7280    -7.8340    13.3830 cy         1 JRP      -0.186700
     12 C12         -7.5590    -9.1900    12.5940 cy         1 JRP      -0.062400
     13 C14         -7.2720    -8.4460    10.0220 c5         1 JRP      -0.105400
     14 N03         -5.4560    -6.9840    14.1830 ns         1 JRP      -0.143000
     15 O01         -6.1160    -8.8890    15.0630 o          1 JRP      -0.544000
     16 O16         -8.3350    -6.6330    11.2360 os         1 JRP      -0.429000
     17 H131        -5.6890    -8.5470    11.5350 hc         1 JRP       0.081700
     18 H151        -8.9630    -7.1760     9.3020 h1         1 JRP       0.050700
     19 H152        -9.4090    -8.3060    10.5980 h1         1 JRP       0.050700
     20 H051        -3.7460    -4.9190    14.2960 ha         1 JRP       0.117000
     21 H061        -3.6010    -3.0770    12.6220 ha         1 JRP       0.115000
     22 H071        -5.1410    -3.0630    10.6590 ha         1 JRP       0.118000
     23 H081        -6.8160    -4.8660    10.3730 ha         1 JRP       0.124000
     24 H111        -8.6460    -7.5850    13.9210 hc         1 JRP       0.099700
     25 H121        -8.5150    -9.6070    12.2580 hc         1 JRP       0.062700
     26 H122        -7.0150   -10.0240    13.0530 hc         1 JRP       0.062700
     27 H141        -7.4330    -9.4600     9.6370 hc         1 JRP       0.059200
     28 H142        -6.6010    -7.9220     9.3320 hc         1 JRP       0.059200
     29 H031        -4.6730    -7.0660    14.8180 hn         1 JRP       0.158000
@<TRIPOS>BOND
     1     1     2 1   
     2     1    10 1   
     3     1    11 1   
     4     1    16 1   
     5     2    12 1   
     6     2    13 1   
     7     2    17 1   
     8     3    13 1   
     9     3    16 1   
    10     3    18 1   
    11     3    19 1   
    12     4    11 1   
    13     4    14 1   
    14     4    15 2   
    15     5     6 ar  
    16     5    10 ar  
    17     5    14 1   
    18     6     7 ar  
    19     6    20 1   
    20     7     8 ar  
    21     7    21 1   
    22     8     9 ar  
    23     8    22 1   
    24     9    10 ar  
    25     9    23 1   
    26    11    12 1   
    27    11    24 1   
    28    12    25 1   
    29    12    26 1   
    30    13    27 1   
    31    13    28 1   
    32    14    29 1   
@<TRIPOS>SUBSTRUCTURE
     1 JRP         1 TEMP              0 ****  ****    0 ROOT
