@<TRIPOS>MOLECULE
JRQ
   43    44     1     0     0
SMALL
No Charge or Current Charge


@<TRIPOS>ATOM
      1 C10          3.1330    -1.4580    -0.3410 c          1 JRQ       0.612100
      2 C13          6.3900    -0.3920     1.0250 c3         1 JRQ      -0.097100
      3 C15          1.8080     1.2600    -0.5240 c          1 JRQ       0.567000
      4 C17          0.1260     2.1680     1.1450 c6         1 JRQ       0.115000
      5 C20         -3.5450    -1.3180     0.9000 ca         1 JRQ      -0.094000
      6 C21         -4.9220    -1.0440     0.9800 ca         1 JRQ      -0.114500
      7 C02         -5.5590    -0.2980    -0.0280 ca         1 JRQ      -0.070300
      8 C03         -4.8040     0.1770    -1.1170 ca         1 JRQ      -0.114500
      9 C04         -3.4270    -0.0960    -1.1970 ca         1 JRQ      -0.094000
     10 C05         -2.7890    -0.8450    -0.1900 ca         1 JRQ      -0.100300
     11 N07         -0.4590     0.0850    -0.1610 n3         1 JRQ      -0.746600
     12 C08          0.9830    -0.0760    -0.5810 c6         1 JRQ       0.121500
     13 C09          1.7480    -1.1710     0.2350 c3         1 JRQ      -0.169400
     14 O11          4.1280    -0.9190     0.4320 os         1 JRQ      -0.443100
     15 C12          5.4860    -1.0970     0.0010 c3         1 JRQ       0.168600
     16 O14          3.3190    -2.1070    -1.3610 o          1 JRQ      -0.491000
     17 N16          1.3810     2.2240     0.3650 ns         1 JRQ      -0.498900
     18 C18         -0.5620     0.7710     1.1590 c6         1 JRQ       0.159800
     19 H133         6.2590    -0.8300     2.0220 hc         1 JRQ       0.044700
     20 H131         7.4430    -0.4980     0.7380 hc         1 JRQ       0.044700
     21 H132         6.1530     0.6770     1.0770 hc         1 JRQ       0.044700
     22 H171         0.3260     2.4930     2.1750 h1         1 JRQ       0.047200
     23 H172        -0.5690     2.8940     0.6990 h1         1 JRQ       0.047200
     24 H211        -5.4940    -1.4130     1.8290 ha         1 JRQ       0.111500
     25 H012        -7.2260     0.9380     0.6020 hc         1 JRQ       0.042700
     26 H011        -7.4970     0.0970    -0.9340 hc         1 JRQ       0.042700
     27 H013        -7.5850    -0.7970     0.5880 hc         1 JRQ       0.042700
     28 H031        -5.2820     0.7600    -1.9010 ha         1 JRQ       0.111500
     29 H041        -2.8510     0.2790    -2.0410 ha         1 JRQ       0.117000
     30 H081         1.0140    -0.3750    -1.6400 h1         1 JRQ       0.105700
     31 H092         1.1950    -2.1150     0.2090 hc         1 JRQ       0.072700
     32 H091         1.8590    -0.8400     1.2730 hc         1 JRQ       0.072700
     33 H121         5.6440    -0.6540    -0.9920 h1         1 JRQ       0.050700
     34 H122         5.7470    -2.1630    -0.0470 h1         1 JRQ       0.050700
     35 H161         1.9240     3.0780     0.3870 hn         1 JRQ       0.318500
     36 H182        -0.1010     0.1560     1.9450 h1         1 JRQ       0.048700
     37 H181        -1.6140     0.9120     1.4500 h1         1 JRQ       0.048700
     38 O19          2.7700     1.4770    -1.2460 o          1 JRQ      -0.568000
     39 C06         -1.2940    -1.1370    -0.2830 c3         1 JRQ       0.232100
     40 H201        -3.0670    -1.8950     1.6890 ha         1 JRQ       0.117000
     41 C01         -7.0480     0.0010     0.0610 c3         1 JRQ      -0.047800
     42 H061        -1.0250    -1.8630     0.4970 h1         1 JRQ       0.044200
     43 H062        -1.1050    -1.6210    -1.2510 h1         1 JRQ       0.044200
@<TRIPOS>BOND
     1     1    13 1   
     2     1    14 1   
     3     1    16 2   
     4     2    15 1   
     5     2    19 1   
     6     2    20 1   
     7     2    21 1   
     8     3    12 1   
     9     3    17 1   
    10     3    38 2   
    11     4    17 1   
    12     4    18 1   
    13     4    22 1   
    14     4    23 1   
    15     5     6 ar  
    16     5    10 ar  
    17     5    40 1   
    18     6     7 ar  
    19     6    24 1   
    20     7     8 ar  
    21     7    41 1   
    22     8     9 ar  
    23     8    28 1   
    24     9    10 ar  
    25     9    29 1   
    26    10    39 1   
    27    11    12 1   
    28    11    18 1   
    29    11    39 1   
    30    12    13 1   
    31    12    30 1   
    32    13    31 1   
    33    13    32 1   
    34    14    15 1   
    35    15    33 1   
    36    15    34 1   
    37    17    35 1   
    38    18    36 1   
    39    18    37 1   
    40    25    41 1   
    41    26    41 1   
    42    27    41 1   
    43    39    42 1   
    44    39    43 1   
@<TRIPOS>SUBSTRUCTURE
     1 JRQ         1 TEMP              0 ****  ****    0 ROOT
