@<TRIPOS>MOLECULE
JRQ
   43    44     1     0     0
SMALL
abcg2


@<TRIPOS>ATOM
      1 C10          3.0870    -1.2460    -0.3170 c          1 JRQ       0.612100
      2 C13          6.4860    -0.9110     0.8910 c3         1 JRQ      -0.097100
      3 C15          1.6400     1.3890    -0.4530 c          1 JRQ       0.567000
      4 C17         -0.1950     2.4020     0.8790 c6         1 JRQ       0.115000
      5 C20         -3.5340    -1.4720     0.9000 ca         1 JRQ      -0.094000
      6 C21         -4.9080    -1.2740     0.8380 ca         1 JRQ      -0.114500
      7 C02         -5.4660    -0.4120    -0.1010 ca         1 JRQ      -0.070300
      8 C03         -4.6020     0.2420    -0.9800 ca         1 JRQ      -0.114500
      9 C04         -3.2320     0.0450    -0.9200 ca         1 JRQ      -0.094000
     10 C05         -2.6780    -0.8210     0.0200 ca         1 JRQ      -0.100300
     11 N07         -0.4440     0.1750     0.0440 n3         1 JRQ      -0.746600
     12 C08          0.9200     0.0500    -0.4130 c6         1 JRQ       0.121500
     13 C09          1.8010    -0.9310     0.3990 c3         1 JRQ      -0.169400
     14 O11          4.1550    -0.9910     0.4210 os         1 JRQ      -0.443100
     15 C12          5.4470    -1.2480    -0.1510 c3         1 JRQ       0.168600
     16 O14          3.1360    -1.7190    -1.4270 o          1 JRQ      -0.491000
     17 N16          1.0730     2.4210     0.1780 ns         1 JRQ      -0.498900
     18 C18         -0.5690     0.9830     1.2360 c6         1 JRQ       0.159800
     19 H133         6.3770    -1.5310     1.7810 hc         1 JRQ       0.044700
     20 H131         7.4780    -1.0920     0.4780 hc         1 JRQ       0.044700
     21 H132         6.4340     0.1370     1.1880 hc         1 JRQ       0.044700
     22 H171        -0.1060     3.0110     1.7790 h1         1 JRQ       0.047200
     23 H172        -0.9780     2.8420     0.2560 h1         1 JRQ       0.047200
     24 H211        -5.5520    -1.7950     1.5360 ha         1 JRQ       0.111500
     25 H012        -7.2240     0.6860     0.4710 hc         1 JRQ       0.042700
     26 H011        -7.2850     0.0450    -1.1620 hc         1 JRQ       0.042700
     27 H013        -7.5060    -1.0290     0.2190 hc         1 JRQ       0.042700
     28 H031        -5.0100     0.9150    -1.7250 ha         1 JRQ       0.111500
     29 H041        -2.5820     0.5700    -1.6090 ha         1 JRQ       0.117000
     30 H081         0.8880    -0.3130    -1.4450 h1         1 JRQ       0.105700
     31 H092         1.2630    -1.8770     0.5090 hc         1 JRQ       0.072700
     32 H091         1.9930    -0.5480     1.4010 hc         1 JRQ       0.072700
     33 H121         5.5780    -0.6360    -1.0460 h1         1 JRQ       0.050700
     34 H122         5.5190    -2.2970    -0.4460 h1         1 JRQ       0.050700
     35 H161         1.5580     3.3050     0.1140 hn         1 JRQ       0.318500
     36 H182         0.0420     0.6150     2.0750 h1         1 JRQ       0.048700
     37 H181        -1.6050     0.9720     1.5740 h1         1 JRQ       0.048700
     38 O19          2.7260     1.4710    -1.0180 o          1 JRQ      -0.568000
     39 C06         -1.1910    -1.0630     0.0630 c3         1 JRQ       0.232100
     40 H201        -3.1240    -2.1440     1.6460 ha         1 JRQ       0.117000
     41 C01         -6.9470    -0.1690    -0.1490 c3         1 JRQ      -0.047800
     42 H061        -0.9570    -1.6940     0.9340 h1         1 JRQ       0.044200
     43 H062        -0.8980    -1.6410    -0.8200 h1         1 JRQ       0.044200
@<TRIPOS>BOND
     1     1    13 1   
     2     1    14 1   
     3     1    16 2   
     4     2    15 1   
     5     2    19 1   
     6     2    20 1   
     7     2    21 1   
     8     3    12 1   
     9     3    17 1   
    10     3    38 2   
    11     4    17 1   
    12     4    18 1   
    13     4    22 1   
    14     4    23 1   
    15     5     6 ar  
    16     5    10 ar  
    17     5    40 1   
    18     6     7 ar  
    19     6    24 1   
    20     7     8 ar  
    21     7    41 1   
    22     8     9 ar  
    23     8    28 1   
    24     9    10 ar  
    25     9    29 1   
    26    10    39 1   
    27    11    12 1   
    28    11    18 1   
    29    11    39 1   
    30    12    13 1   
    31    12    30 1   
    32    13    31 1   
    33    13    32 1   
    34    14    15 1   
    35    15    33 1   
    36    15    34 1   
    37    17    35 1   
    38    18    36 1   
    39    18    37 1   
    40    25    41 1   
    41    26    41 1   
    42    27    41 1   
    43    39    42 1   
    44    39    43 1   
@<TRIPOS>SUBSTRUCTURE
     1 JRQ         1 TEMP              0 ****  ****    0 ROOT
