@<TRIPOS>MOLECULE
JRR
   56    58     1     0     0
SMALL
No Charge or Current Charge


@<TRIPOS>ATOM
      1 C1           0.2250     3.2630     1.1890 c3         1 JRR       0.157600
      2 O1          -0.7700     2.3240     0.7220 os         1 JRR      -0.465000
      3 C2           1.5300     2.4840     1.4920 c3         1 JRR       0.161800
      4 N2           2.0270     1.7770     0.2900 n7         1 JRR      -0.859400
      5 C3           3.1380     0.8360     0.5260 c3         1 JRR       0.159800
      6 C4           3.5610     0.1560    -0.7910 c3         1 JRR      -0.038100
      7 N1          -2.7530     2.8410    -1.9720 n7         1 JRR      -0.835400
      8 C11          4.7060    -0.8260    -0.5840 ca         1 JRR      -0.051300
      9 C12          6.0420    -0.3950    -0.6990 ca         1 JRR      -0.149000
     10 C13          7.0940    -1.3030    -0.5010 ca         1 JRR       0.171000
     11 F13          8.3730    -0.8830    -0.6140 f          1 JRR      -0.181000
     12 C14          6.8260    -2.6450    -0.1870 ca         1 JRR      -0.154000
     13 C15          5.4960    -3.0810    -0.0690 ca         1 JRR      -0.084000
     14 C16          4.4400    -2.1730    -0.2660 ca         1 JRR      -0.127000
     15 N1A         -5.0830    -0.6830     1.1510 nb         1 JRR      -0.758000
     16 C9          -2.0060     3.6440    -0.9600 c5         1 JRR       0.112800
     17 C2A         -3.8630    -0.7240     0.5680 ca         1 JRR       0.396300
     18 C10         -2.0850     2.8500     0.3980 c5         1 JRR       0.151300
     19 C3A         -3.4910    -1.7300    -0.3440 ca         1 JRR      -0.215000
     20 C17         -3.0220     1.6550     0.0450 c5         1 JRR      -0.089700
     21 C4A         -4.4100    -2.7380    -0.6770 ca         1 JRR       0.001700
     22 C5          -2.6730     1.4580    -1.4510 c5         1 JRR       0.144800
     23 C5A         -5.6710    -2.6870    -0.0640 ca         1 JRR      -0.233000
     24 C6A         -5.9320    -1.6470     0.8300 ca         1 JRR       0.600900
     25 N6A         -7.0960    -1.4920     1.4630 nv         1 JRR      -1.056900
     26 C7A         -2.8930     0.3890     0.9380 c3         1 JRR      -0.105700
     27 C8A         -4.0500    -3.8430    -1.6560 c3         1 JRR      -0.053800
     28 H1           0.4300     4.0330     0.4340 h1         1 JRR       0.030200
     29 H1A         -0.1160     3.7630     2.1050 h1         1 JRR       0.030200
     30 H2           2.2890     3.1850     1.8660 h1         1 JRR       0.035700
     31 H2A          1.3190     1.7660     2.2970 h1         1 JRR       0.035700
     32 HN2          1.2280     1.2480    -0.0820 hn         1 JRR       0.422000
     33 H3           4.0040     1.3660     0.9470 h1         1 JRR       0.031200
     34 H3A          2.8370     0.0620     1.2460 h1         1 JRR       0.031200
     35 H4           2.6960    -0.3620    -1.2240 hc         1 JRR       0.057700
     36 H4A          3.8520     0.9270    -1.5150 hc         1 JRR       0.057700
     37 HN1         -3.7400     3.1250    -1.9440 hn         1 JRR       0.397000
     38 H12          6.2670     0.6410    -0.9390 ha         1 JRR       0.132000
     39 H14          7.6470    -3.3410    -0.0360 ha         1 JRR       0.131000
     40 H15          5.2820    -4.1200     0.1750 ha         1 JRR       0.116000
     41 H16          3.4120    -2.5170    -0.1710 ha         1 JRR       0.116000
     42 H6          -0.9620     3.7680    -1.2810 h1         1 JRR       0.052200
     43 H2'A        -2.4370     4.6510    -0.8640 h1         1 JRR       0.052200
     44 H9          -2.4620     3.4510     1.2370 h1         1 JRR       0.043700
     45 H3AA        -2.4990    -1.7210    -0.7880 ha         1 JRR       0.122000
     46 H10         -4.0660     1.9790     0.1370 hc         1 JRR       0.066700
     47 H5          -3.3810     0.7890    -1.9620 h1         1 JRR       0.057700
     48 H5'A        -1.6610     1.0430    -1.5770 h1         1 JRR       0.057700
     49 H5A         -6.4270    -3.4370    -0.2730 ha         1 JRR       0.119000
     50 HN6A        -7.2270    -0.5820     1.8860 hn         1 JRR       0.468000
     51 HN6B        -7.9160    -1.9260     1.0540 hn         1 JRR       0.468000
     52 H7A         -3.0420     0.6710     1.9880 hc         1 JRR       0.061700
     53 H7AA        -1.8710    -0.0040     0.8860 hc         1 JRR       0.061700
     54 H8A         -3.5620    -4.6770    -1.1400 hc         1 JRR       0.046700
     55 H8AA        -4.9410    -4.2350    -2.1610 hc         1 JRR       0.046700
     56 H8AB        -3.3640    -3.4790    -2.4310 hc         1 JRR       0.046700
@<TRIPOS>BOND
     1     1     2 1   
     2     1     3 1   
     3     1    28 1   
     4     1    29 1   
     5     2    18 1   
     6     3     4 1   
     7     3    30 1   
     8     3    31 1   
     9     4     5 1   
    10     4    32 1   
    11     5     6 1   
    12     5    33 1   
    13     5    34 1   
    14     6     8 1   
    15     6    35 1   
    16     6    36 1   
    17     7    16 1   
    18     7    22 1   
    19     7    37 1   
    20     8     9 ar  
    21     8    14 ar  
    22     9    10 ar  
    23     9    38 1   
    24    10    11 1   
    25    10    12 ar  
    26    12    13 ar  
    27    12    39 1   
    28    13    14 ar  
    29    13    40 1   
    30    14    41 1   
    31    15    17 ar  
    32    15    24 ar  
    33    16    18 1   
    34    16    42 1   
    35    16    43 1   
    36    17    19 ar  
    37    17    26 1   
    38    18    20 1   
    39    18    44 1   
    40    19    21 ar  
    41    19    45 1   
    42    20    22 1   
    43    20    26 1   
    44    20    46 1   
    45    21    23 ar  
    46    21    27 1   
    47    22    47 1   
    48    22    48 1   
    49    23    24 ar  
    50    23    49 1   
    51    24    25 1   
    52    25    50 1   
    53    25    51 1   
    54    26    52 1   
    55    26    53 1   
    56    27    54 1   
    57    27    55 1   
    58    27    56 1   
@<TRIPOS>SUBSTRUCTURE
     1 JRR         1 TEMP              0 ****  ****    0 ROOT
