@<TRIPOS>MOLECULE
JRR
   56    58     1     0     0
SMALL
bcc


@<TRIPOS>ATOM
      1 C1           0.2280     2.9200     1.2150 c3         1 JRR       0.134400
      2 O1          -0.7290     2.0850     0.6120 os         1 JRR      -0.418600
      3 C2           1.4810     2.1110     1.4620 c3         1 JRR       0.161800
      4 N2           2.0680     1.6450     0.2210 n7         1 JRR      -0.804200
      5 C3           3.2080     0.7780     0.4380 c3         1 JRR       0.159800
      6 C4           3.7870     0.2960    -0.8900 c3         1 JRR      -0.038100
      7 N1          -2.6830     2.8620    -1.8830 n7         1 JRR      -0.780200
      8 C11          4.9360    -0.6460    -0.6760 ca         1 JRR      -0.051300
      9 C12          6.2450    -0.1710    -0.6620 ca         1 JRR      -0.167000
     10 C13          7.2820    -1.0520    -0.4230 ca         1 JRR       0.135900
     11 F13          8.5400    -0.5790    -0.4190 f          1 JRR      -0.145900
     12 C14          7.0750    -2.3970    -0.1910 ca         1 JRR      -0.172000
     13 C15          5.7680    -2.8660    -0.2030 ca         1 JRR      -0.102000
     14 C16          4.7090    -2.0020    -0.4430 ca         1 JRR      -0.145000
     15 N1A         -5.1340    -0.4050     0.8390 nb         1 JRR      -0.758000
     16 C9          -2.0710     3.6080    -0.7740 c5         1 JRR       0.112800
     17 C2A         -3.8910    -0.7480     0.4910 ca         1 JRR       0.461600
     18 C10         -2.0040     2.6630     0.4450 c5         1 JRR       0.128100
     19 C3A         -3.5980    -1.9380    -0.1500 ca         1 JRR      -0.298300
     20 C17         -2.9940     1.5560     0.0790 c5         1 JRR      -0.089700
     21 C4A         -4.6380    -2.8260    -0.4500 ca         1 JRR       0.001700
     22 C5          -2.8320     1.4800    -1.4380 c5         1 JRR       0.144800
     23 C5A         -5.9200    -2.4700    -0.0870 ca         1 JRR      -0.316300
     24 C6A         -6.1290    -1.2400     0.5630 ca         1 JRR       0.666200
     25 N6A         -7.3780    -0.8790     0.9800 nv         1 JRR      -0.946500
     26 C7A         -2.8090     0.2400     0.8250 c3         1 JRR      -0.105700
     27 C8A         -4.3540    -4.1270    -1.1370 c3         1 JRR      -0.053800
     28 H1           0.4660     3.7850     0.5810 h1         1 JRR       0.030200
     29 H1A         -0.1460     3.3120     2.1710 h1         1 JRR       0.030200
     30 H2           2.2020     2.7530     1.9760 h1         1 JRR       0.035700
     31 H2A          1.2470     1.2900     2.1590 h1         1 JRR       0.035700
     32 HN2          1.3640     1.1290    -0.2950 hn         1 JRR       0.366800
     33 H3           3.9750     1.3370     0.9840 h1         1 JRR       0.031200
     34 H3A          2.9620    -0.0950     1.0630 h1         1 JRR       0.031200
     35 H4           3.0010    -0.2070    -1.4610 hc         1 JRR       0.057700
     36 H4A          4.1080     1.1590    -1.4780 hc         1 JRR       0.057700
     37 HN1         -3.6020     3.2410    -2.0610 hn         1 JRR       0.341800
     38 H12          6.4530     0.8770    -0.8410 ha         1 JRR       0.150000
     39 H14          7.9100    -3.0610    -0.0090 ha         1 JRR       0.149000
     40 H15          5.5790    -3.9170    -0.0280 ha         1 JRR       0.134000
     41 H16          3.6950    -2.3840    -0.4530 ha         1 JRR       0.134000
     42 H6          -1.0670     3.9550    -1.0390 h1         1 JRR       0.052200
     43 H2'A        -2.6590     4.4990    -0.5430 h1         1 JRR       0.052200
     44 H9          -2.2970     3.1760     1.3710 h1         1 JRR       0.043700
     45 H3AA        -2.5760    -2.1760    -0.4170 ha         1 JRR       0.140000
     46 H10         -3.9970     1.9390     0.2930 hc         1 JRR       0.066700
     47 H5          -3.6770     1.0080    -1.9400 h1         1 JRR       0.057700
     48 H5'A        -1.9380     0.8980    -1.6930 h1         1 JRR       0.057700
     49 H5A         -6.7590    -3.1230    -0.2970 ha         1 JRR       0.137000
     50 HN6A        -7.5190     0.0990     1.1700 hn         1 JRR       0.412800
     51 HN6B        -8.1640    -1.3310     0.5430 hn         1 JRR       0.412800
     52 H7A         -2.8240     0.4280     1.9030 hc         1 JRR       0.061700
     53 H7AA        -1.8360    -0.1910     0.5890 hc         1 JRR       0.061700
     54 H8A         -3.7630    -4.7810    -0.4950 hc         1 JRR       0.046700
     55 H8AA        -5.2710    -4.6540    -1.4000 hc         1 JRR       0.046700
     56 H8AB        -3.7770    -3.9700    -2.0500 hc         1 JRR       0.046700
@<TRIPOS>BOND
     1     1     2 1   
     2     1     3 1   
     3     1    28 1   
     4     1    29 1   
     5     2    18 1   
     6     3     4 1   
     7     3    30 1   
     8     3    31 1   
     9     4     5 1   
    10     4    32 1   
    11     5     6 1   
    12     5    33 1   
    13     5    34 1   
    14     6     8 1   
    15     6    35 1   
    16     6    36 1   
    17     7    16 1   
    18     7    22 1   
    19     7    37 1   
    20     8     9 ar  
    21     8    14 ar  
    22     9    10 ar  
    23     9    38 1   
    24    10    11 1   
    25    10    12 ar  
    26    12    13 ar  
    27    12    39 1   
    28    13    14 ar  
    29    13    40 1   
    30    14    41 1   
    31    15    17 ar  
    32    15    24 ar  
    33    16    18 1   
    34    16    42 1   
    35    16    43 1   
    36    17    19 ar  
    37    17    26 1   
    38    18    20 1   
    39    18    44 1   
    40    19    21 ar  
    41    19    45 1   
    42    20    22 1   
    43    20    26 1   
    44    20    46 1   
    45    21    23 ar  
    46    21    27 1   
    47    22    47 1   
    48    22    48 1   
    49    23    24 ar  
    50    23    49 1   
    51    24    25 1   
    52    25    50 1   
    53    25    51 1   
    54    26    52 1   
    55    26    53 1   
    56    27    54 1   
    57    27    55 1   
    58    27    56 1   
@<TRIPOS>SUBSTRUCTURE
     1 JRR         1 TEMP              0 ****  ****    0 ROOT
