@<TRIPOS>MOLECULE
JRS
   56    58     1     0     0
SMALL
No Charge or Current Charge


@<TRIPOS>ATOM
      1 C1           0.3710    -2.9850    -1.3370 c3         1 JRS       0.157600
      2 O1          -0.6040    -2.0420    -0.8380 os         1 JRS      -0.458000
      3 C2           1.6770    -2.2180    -1.6680 c3         1 JRS       0.161800
      4 N2           2.2200    -1.5320    -0.4720 n7         1 JRS      -0.863400
      5 C3           3.3540    -0.6250    -0.7280 c3         1 JRS       0.160800
      6 C4           3.8290     0.0310     0.5840 c3         1 JRS      -0.037100
      7 N1          -3.0060    -3.1220     1.6250 n7         1 JRS      -0.843400
      8 C11          5.0010     0.9760     0.3560 ca         1 JRS      -0.051300
      9 C12          6.3250     0.5000     0.4380 ca         1 JRS      -0.150000
     10 C13          7.4020     1.3740     0.2220 ca         1 JRS       0.171000
     11 F13          8.6680     0.9110     0.3020 f          1 JRS      -0.181000
     12 C14          7.1720     2.7260    -0.0770 ca         1 JRS      -0.153000
     13 C15          5.8540     3.2070    -0.1610 ca         1 JRS      -0.084000
     14 C16          4.7730     2.3340     0.0540 ca         1 JRS      -0.125000
     15 N1A         -5.5820     0.4710    -0.7560 nb         1 JRS      -0.754000
     16 C9          -1.8150    -3.4650     0.7870 c5         1 JRS       0.112800
     17 C2A         -4.2520     0.6340    -0.5790 ca         1 JRS       0.397300
     18 C10         -1.9100    -2.5650    -0.4910 c5         1 JRS       0.136300
     19 C3A         -3.7020     1.7590     0.0650 ca         1 JRS      -0.213000
     20 C17         -2.7800    -1.3880     0.0150 c5         1 JRS      -0.082700
     21 C4A         -4.5550     2.7640     0.5500 ca         1 JRS       0.000700
     22 C5          -3.8340    -2.2030     0.8040 c5         1 JRS       0.146800
     23 C5A         -5.9330     2.5860     0.3580 ca         1 JRS      -0.230000
     24 C6A         -6.3690     1.4320    -0.2970 ca         1 JRS       0.595900
     25 N6A         -7.6540     1.1550    -0.5270 nv         1 JRS      -1.049900
     26 C7A         -3.3520    -0.4770    -1.1010 c3         1 JRS      -0.118700
     27 C8A         -4.0060     3.9960     1.2500 c3         1 JRS      -0.053800
     28 H1           0.5860    -3.7620    -0.5910 h1         1 JRS       0.032700
     29 H1A          0.0020    -3.4770    -2.2470 h1         1 JRS       0.032700
     30 H2           2.4140    -2.9250    -2.0710 h1         1 JRS       0.037200
     31 H2A          1.4530    -1.4880    -2.4590 h1         1 JRS       0.037200
     32 HN2          1.4450    -0.9810    -0.0790 hn         1 JRS       0.421000
     33 H3           4.1920    -1.1780    -1.1730 h1         1 JRS       0.032200
     34 H3A          3.0610     0.1640    -1.4340 h1         1 JRS       0.032200
     35 H4           2.9920     0.5740     1.0400 hc         1 JRS       0.057200
     36 H4A          4.1110    -0.7540     1.2960 hc         1 JRS       0.057200
     37 HN1         -3.5420    -3.9660     1.8700 hn         1 JRS       0.401000
     38 H12          6.5210    -0.5440     0.6660 ha         1 JRS       0.132000
     39 H14          8.0120     3.3960    -0.2420 ha         1 JRS       0.131000
     40 H15          5.6700     4.2540    -0.3940 ha         1 JRS       0.116000
     41 H16          3.7560     2.7130    -0.0150 ha         1 JRS       0.116000
     42 H6          -0.8910    -3.2670     1.3480 h1         1 JRS       0.060200
     43 H2'A        -1.8140    -4.5290     0.5110 h1         1 JRS       0.060200
     44 H9          -2.3620    -3.0870    -1.3460 h1         1 JRS       0.031700
     45 H3AA        -2.6260     1.8440     0.1840 ha         1 JRS       0.123000
     46 H10         -2.2070    -0.7480     0.6980 hc         1 JRS       0.069700
     47 H5          -4.4830    -2.7680     0.1180 h1         1 JRS       0.057200
     48 H5'A        -4.4790    -1.5670     1.4280 h1         1 JRS       0.057200
     49 H5A         -6.6480     3.3260     0.7050 ha         1 JRS       0.119000
     50 HN6A        -7.8380     0.1950    -0.7920 hn         1 JRS       0.466000
     51 HN6B        -8.3470     1.6070     0.0590 hn         1 JRS       0.466000
     52 H7A         -3.8940    -1.0890    -1.8320 hc         1 JRS       0.060700
     53 H7AA        -2.5220    -0.0250    -1.6570 hc         1 JRS       0.060700
     54 H8A         -3.7720     4.7840     0.5250 hc         1 JRS       0.046700
     55 H8AA        -4.7280     4.4030     1.9680 hc         1 JRS       0.046700
     56 H8AB        -3.0880     3.7640     1.8020 hc         1 JRS       0.046700
@<TRIPOS>BOND
     1     1     2 1   
     2     1     3 1   
     3     1    28 1   
     4     1    29 1   
     5     2    18 1   
     6     3     4 1   
     7     3    30 1   
     8     3    31 1   
     9     4     5 1   
    10     4    32 1   
    11     5     6 1   
    12     5    33 1   
    13     5    34 1   
    14     6     8 1   
    15     6    35 1   
    16     6    36 1   
    17     7    16 1   
    18     7    22 1   
    19     7    37 1   
    20     8     9 ar  
    21     8    14 ar  
    22     9    10 ar  
    23     9    38 1   
    24    10    11 1   
    25    10    12 ar  
    26    12    13 ar  
    27    12    39 1   
    28    13    14 ar  
    29    13    40 1   
    30    14    41 1   
    31    15    17 ar  
    32    15    24 ar  
    33    16    18 1   
    34    16    42 1   
    35    16    43 1   
    36    17    19 ar  
    37    17    26 1   
    38    18    20 1   
    39    18    44 1   
    40    19    21 ar  
    41    19    45 1   
    42    20    22 1   
    43    20    26 1   
    44    20    46 1   
    45    21    23 ar  
    46    21    27 1   
    47    22    47 1   
    48    22    48 1   
    49    23    24 ar  
    50    23    49 1   
    51    24    25 1   
    52    25    50 1   
    53    25    51 1   
    54    26    52 1   
    55    26    53 1   
    56    27    54 1   
    57    27    55 1   
    58    27    56 1   
@<TRIPOS>SUBSTRUCTURE
     1 JRS         1 TEMP              0 ****  ****    0 ROOT
