@<TRIPOS>MOLECULE
JRS
   56    58     1     0     0
SMALL
bcc


@<TRIPOS>ATOM
      1 C1           0.3580    -2.5760    -1.3040 c3         1 JRS       0.134400
      2 O1          -0.5890    -1.7230    -0.7020 os         1 JRS      -0.411600
      3 C2           1.6110    -1.7800    -1.5890 c3         1 JRS       0.161800
      4 N2           2.2460    -1.3320    -0.3650 n7         1 JRS      -0.808200
      5 C3           3.4130    -0.5100    -0.6090 c3         1 JRS       0.160800
      6 C4           4.0560    -0.0760     0.7060 c3         1 JRS      -0.037100
      7 N1          -3.1600    -3.3920     1.2570 n7         1 JRS      -0.788200
      8 C11          5.2560     0.7960     0.4680 ca         1 JRS      -0.051300
      9 C12          6.4910     0.2190     0.1810 ca         1 JRS      -0.168000
     10 C13          7.5740     1.0340    -0.0810 ca         1 JRS       0.135900
     11 F13          8.7600     0.4610    -0.3530 f          1 JRS      -0.145900
     12 C14          7.4870     2.4130    -0.0710 ca         1 JRS      -0.171000
     13 C15          6.2540     2.9830     0.2160 ca         1 JRS      -0.102000
     14 C16          5.1500     2.1850     0.4830 ca         1 JRS      -0.143000
     15 N1A         -5.6780     0.1720    -0.4930 nb         1 JRS      -0.754000
     16 C9          -1.7700    -3.2830     0.8350 c5         1 JRS       0.112800
     17 C2A         -4.4010     0.5350    -0.6190 ca         1 JRS       0.462600
     18 C10         -1.8010    -2.3440    -0.3740 c5         1 JRS       0.113100
     19 C3A         -3.9490     1.8020    -0.2920 ca         1 JRS      -0.296300
     20 C17         -2.8280    -1.3060     0.0650 c5         1 JRS      -0.082700
     21 C4A         -4.8580     2.7440     0.1990 ca         1 JRS       0.000700
     22 C5          -3.8330    -2.1350     0.8850 c5         1 JRS       0.146800
     23 C5A         -6.1790     2.3650     0.3310 ca         1 JRS      -0.313300
     24 C6A         -6.5520     1.0590    -0.0290 ca         1 JRS       0.661200
     25 N6A         -7.8580     0.6610     0.0420 nv         1 JRS      -0.939500
     26 C7A         -3.4400    -0.5190    -1.0930 c3         1 JRS      -0.118700
     27 C8A         -4.4020     4.1240     0.5630 c3         1 JRS      -0.053800
     28 H1           0.6040    -3.4240    -0.6520 h1         1 JRS       0.032700
     29 H1A         -0.0340    -2.9890    -2.2440 h1         1 JRS       0.032700
     30 H2           2.3070    -2.4290    -2.1280 h1         1 JRS       0.037200
     31 H2A          1.3670    -0.9530    -2.2750 h1         1 JRS       0.037200
     32 HN2          1.5750    -0.7940     0.1720 hn         1 JRS       0.365800
     33 H3           4.1350    -1.0950    -1.1870 h1         1 JRS       0.032200
     34 H3A          3.1860     0.3830    -1.2130 h1         1 JRS       0.032200
     35 H4           3.3190     0.4680     1.3040 hc         1 JRS       0.057200
     36 H4A          4.3400    -0.9640     1.2760 hc         1 JRS       0.057200
     37 HN1         -3.5920    -4.1560     0.7570 hn         1 JRS       0.345800
     38 H12          6.6070    -0.8580     0.1650 ha         1 JRS       0.150000
     39 H14          8.3550     3.0240    -0.2800 ha         1 JRS       0.149000
     40 H15          6.1580     4.0600     0.2330 ha         1 JRS       0.134000
     41 H16          4.1970     2.6460     0.7110 ha         1 JRS       0.134000
     42 H6          -1.1570    -2.8320     1.6230 h1         1 JRS       0.060200
     43 H2'A        -1.3580    -4.2700     0.6210 h1         1 JRS       0.060200
     44 H9          -2.1920    -2.9000    -1.2430 h1         1 JRS       0.031700
     45 H3AA        -2.9020     2.0540    -0.4100 ha         1 JRS       0.141000
     46 H10         -2.3120    -0.6040     0.7320 hc         1 JRS       0.069700
     47 H5          -4.7350    -2.3460     0.3080 h1         1 JRS       0.057200
     48 H5'A        -4.1540    -1.5830     1.7720 h1         1 JRS       0.057200
     49 H5A         -6.9220     3.0600     0.7040 ha         1 JRS       0.137000
     50 HN6A        -8.0100    -0.3350     0.0560 hn         1 JRS       0.410800
     51 HN6B        -8.4600     1.1700     0.6680 hn         1 JRS       0.410800
     52 H7A         -3.9590    -1.2110    -1.7610 hc         1 JRS       0.060700
     53 H7AA        -2.6360    -0.0510    -1.6650 hc         1 JRS       0.060700
     54 H8A         -4.0190     4.6500    -0.3130 hc         1 JRS       0.046700
     55 H8AA        -5.2100     4.7190     0.9860 hc         1 JRS       0.046700
     56 H8AB        -3.5910     4.0860     1.2910 hc         1 JRS       0.046700
@<TRIPOS>BOND
     1     1     2 1   
     2     1     3 1   
     3     1    28 1   
     4     1    29 1   
     5     2    18 1   
     6     3     4 1   
     7     3    30 1   
     8     3    31 1   
     9     4     5 1   
    10     4    32 1   
    11     5     6 1   
    12     5    33 1   
    13     5    34 1   
    14     6     8 1   
    15     6    35 1   
    16     6    36 1   
    17     7    16 1   
    18     7    22 1   
    19     7    37 1   
    20     8     9 ar  
    21     8    14 ar  
    22     9    10 ar  
    23     9    38 1   
    24    10    11 1   
    25    10    12 ar  
    26    12    13 ar  
    27    12    39 1   
    28    13    14 ar  
    29    13    40 1   
    30    14    41 1   
    31    15    17 ar  
    32    15    24 ar  
    33    16    18 1   
    34    16    42 1   
    35    16    43 1   
    36    17    19 ar  
    37    17    26 1   
    38    18    20 1   
    39    18    44 1   
    40    19    21 ar  
    41    19    45 1   
    42    20    22 1   
    43    20    26 1   
    44    20    46 1   
    45    21    23 ar  
    46    21    27 1   
    47    22    47 1   
    48    22    48 1   
    49    23    24 ar  
    50    23    49 1   
    51    24    25 1   
    52    25    50 1   
    53    25    51 1   
    54    26    52 1   
    55    26    53 1   
    56    27    54 1   
    57    27    55 1   
    58    27    56 1   
@<TRIPOS>SUBSTRUCTURE
     1 JRS         1 TEMP              0 ****  ****    0 ROOT
