@<TRIPOS>MOLECULE
JRT
   38    40     1     0     0
SMALL
No Charge or Current Charge


@<TRIPOS>ATOM
      1 N1          -2.8350     1.2550    -0.2140 na         1 JRT      -0.173600
      2 N3           0.6330     1.8170     0.5040 ns         1 JRT      -0.510900
      3 C4          -4.0540    -0.5570    -0.2010 ca         1 JRT       0.073400
      4 C5          -2.9850     0.0480     0.4010 ca         1 JRT      -0.074200
      5 C6          -2.2540    -0.5540     1.4370 ca         1 JRT      -0.113000
      6 C7          -2.6610    -1.8360     1.8600 ca         1 JRT      -0.094000
      7 C8          -3.7680    -2.4720     1.2490 ca         1 JRT      -0.135000
      8 C10          2.0120     1.4030     0.2290 c3         1 JRT       0.105000
      9 C13          4.0980    -0.7460    -1.3360 ca         1 JRT      -0.103000
     10 C15          6.2940    -1.3140    -0.4520 ca         1 JRT      -0.105000
     11 C17          4.4800    -0.7380     1.0670 ca         1 JRT      -0.103000
     12 O1          -0.2050     1.4960    -1.5920 o          1 JRT      -0.570100
     13 C1          -0.3900     1.8090    -0.4230 c          1 JRT       0.573100
     14 C2          -1.7680     2.2190     0.1190 c3         1 JRT      -0.005400
     15 C3          -3.8250     1.3490    -1.1960 cc         1 JRT       0.434700
     16 N2          -4.6000     0.2410    -1.2050 nd         1 JRT      -0.569100
     17 C9          -4.4760    -1.8310     0.2070 ca         1 JRT      -0.047000
     18 C11          2.1670    -0.1310     0.2000 c3         1 JRT      -0.048100
     19 C12          3.6130    -0.5510    -0.0280 ca         1 JRT      -0.086300
     20 C14          5.4340    -1.1280    -1.5470 ca         1 JRT      -0.107000
     21 C16          5.8170    -1.1180     0.8550 ca         1 JRT      -0.107000
     22 H8           0.3970     2.1030     1.4480 hn         1 JRT       0.312500
     23 H4          -1.4050    -0.0580     1.9000 ha         1 JRT       0.112000
     24 H5          -2.1220    -2.3390     2.6610 ha         1 JRT       0.110000
     25 H6          -4.0760    -3.4610     1.5810 ha         1 JRT       0.113000
     26 H9           2.3310     1.8240    -0.7340 h1         1 JRT       0.059700
     27 H10          2.6640     1.8180     1.0100 h1         1 JRT       0.059700
     28 H15          7.3290    -1.6080    -0.6150 ha         1 JRT       0.115000
     29 H17          4.1180    -0.5870     2.0820 ha         1 JRT       0.111000
     30 H2          -2.0150     3.2020    -0.2990 h1         1 JRT       0.072200
     31 H1          -1.7100     2.3240     1.2090 h1         1 JRT       0.072200
     32 H3          -3.9250     2.2130    -1.8420 h5         1 JRT       0.059800
     33 H7          -5.3260    -2.3130    -0.2690 ha         1 JRT       0.128000
     34 H11          1.7990    -0.5450     1.1460 hc         1 JRT       0.049700
     35 H12          1.5250    -0.5450    -0.5870 hc         1 JRT       0.049700
     36 H14          5.8030    -1.2780    -2.5600 ha         1 JRT       0.115000
     37 H16          6.4820    -1.2610     1.7050 ha         1 JRT       0.115000
     38 H13          3.4400    -0.6010    -2.1900 ha         1 JRT       0.111000
@<TRIPOS>BOND
     1     1     4 1   
     2     1    14 1   
     3     1    15 1   
     4     2     8 1   
     5     2    13 1   
     6     2    22 1   
     7     3     4 ar  
     8     3    16 1   
     9     3    17 ar  
    10     4     5 ar  
    11     5     6 ar  
    12     5    23 1   
    13     6     7 ar  
    14     6    24 1   
    15     7    17 ar  
    16     7    25 1   
    17     8    18 1   
    18     8    26 1   
    19     8    27 1   
    20     9    19 ar  
    21     9    20 ar  
    22     9    38 1   
    23    10    20 ar  
    24    10    21 ar  
    25    10    28 1   
    26    11    19 ar  
    27    11    21 ar  
    28    11    29 1   
    29    12    13 2   
    30    13    14 1   
    31    14    30 1   
    32    14    31 1   
    33    15    16 2   
    34    15    32 1   
    35    17    33 1   
    36    18    19 1   
    37    18    34 1   
    38    18    35 1   
    39    20    36 1   
    40    21    37 1   
@<TRIPOS>SUBSTRUCTURE
     1 JRT         1 TEMP              0 ****  ****    0 ROOT
