@<TRIPOS>MOLECULE
JRT
   38    40     1     0     0
SMALL
abcg2


@<TRIPOS>ATOM
      1 N1          -2.8370     1.2100     0.3560 na         1 JRT      -0.173600
      2 N3           0.7110     0.7720     0.7750 ns         1 JRT      -0.510900
      3 C4          -4.5670     0.1490    -0.4970 ca         1 JRT       0.073400
      4 C5          -3.4300    -0.0260     0.3080 ca         1 JRT      -0.074200
      5 C6          -3.0960    -1.2460     0.8830 ca         1 JRT      -0.113000
      6 C7          -3.9490    -2.3050     0.6250 ca         1 JRT      -0.094000
      7 C8          -5.0910    -2.1500    -0.1750 ca         1 JRT      -0.135000
      8 C10          1.9410     0.3680     0.1220 c3         1 JRT       0.105000
      9 C13          4.7070    -1.4500     0.3420 ca         1 JRT      -0.103000
     10 C15          6.7070    -0.8660    -0.8640 ca         1 JRT      -0.105000
     11 C17          5.2100     0.8520    -0.0930 ca         1 JRT      -0.103000
     12 O1          -0.5420     0.8400    -1.1020 o          1 JRT      -0.570100
     13 C1          -0.4200     0.9980     0.1010 c          1 JRT       0.573100
     14 C2          -1.5730     1.5220     0.9540 c3         1 JRT      -0.005400
     15 C3          -3.5940     2.0310    -0.4140 cc         1 JRT       0.434700
     16 N2          -4.6380     1.4540    -0.9320 nd         1 JRT      -0.569100
     17 C9          -5.4150    -0.9300    -0.7420 ca         1 JRT      -0.047000
     18 C11          3.0820     0.3030     1.1330 c3         1 JRT      -0.048100
     19 C12          4.3630    -0.1050     0.4620 ca         1 JRT      -0.086300
     20 C14          5.8700    -1.8290    -0.3150 ca         1 JRT      -0.107000
     21 C16          6.3740     0.4770    -0.7500 ca         1 JRT      -0.107000
     22 H8           0.7210     0.9050     1.7740 hn         1 JRT       0.312500
     23 H4          -2.2170    -1.3730     1.5020 ha         1 JRT       0.112000
     24 H5          -3.7300    -3.2760     1.0500 ha         1 JRT       0.110000
     25 H6          -5.7300    -3.0060    -0.3510 ha         1 JRT       0.113000
     26 H9           1.8120    -0.6090    -0.3500 h1         1 JRT       0.059700
     27 H10          2.1890     1.0790    -0.6700 h1         1 JRT       0.059700
     28 H15          7.6150    -1.1610    -1.3730 ha         1 JRT       0.115000
     29 H17          4.9560     1.9030    -0.0060 ha         1 JRT       0.111000
     30 H2          -1.4800     2.6070     1.0260 h1         1 JRT       0.072200
     31 H1          -1.5340     1.1360     1.9740 h1         1 JRT       0.072200
     32 H3          -3.3240     3.0690    -0.5480 h5         1 JRT       0.059800
     33 H7          -6.2960    -0.8140    -1.3600 ha         1 JRT       0.128000
     34 H11          3.2010     1.2800     1.6070 hc         1 JRT       0.049700
     35 H12          2.8290    -0.4110     1.9210 hc         1 JRT       0.049700
     36 H14          6.1250    -2.8780    -0.3950 ha         1 JRT       0.115000
     37 H16          7.0240     1.2350    -1.1700 ha         1 JRT       0.115000
     38 H13          4.0620    -2.2070     0.7720 ha         1 JRT       0.111000
@<TRIPOS>BOND
     1     1     4 1   
     2     1    14 1   
     3     1    15 1   
     4     2     8 1   
     5     2    13 1   
     6     2    22 1   
     7     3     4 ar  
     8     3    16 1   
     9     3    17 ar  
    10     4     5 ar  
    11     5     6 ar  
    12     5    23 1   
    13     6     7 ar  
    14     6    24 1   
    15     7    17 ar  
    16     7    25 1   
    17     8    18 1   
    18     8    26 1   
    19     8    27 1   
    20     9    19 ar  
    21     9    20 ar  
    22     9    38 1   
    23    10    20 ar  
    24    10    21 ar  
    25    10    28 1   
    26    11    19 ar  
    27    11    21 ar  
    28    11    29 1   
    29    12    13 2   
    30    13    14 1   
    31    14    30 1   
    32    14    31 1   
    33    15    16 2   
    34    15    32 1   
    35    17    33 1   
    36    18    19 1   
    37    18    34 1   
    38    18    35 1   
    39    20    36 1   
    40    21    37 1   
@<TRIPOS>SUBSTRUCTURE
     1 JRT         1 TEMP              0 ****  ****    0 ROOT
