@<TRIPOS>MOLECULE
JRW
   49    52     1     0     0
SMALL
No Charge or Current Charge


@<TRIPOS>ATOM
      1 C10         -1.8830     0.1170    -0.2850 c          1 JRW       0.534000
      2 N12         -0.3620     2.1740    -0.5740 n7         1 JRW      -0.857400
      3 C13          0.5750     1.3130    -1.3370 c3         1 JRW       0.203100
      4 C15          1.3580    -0.2030     0.6520 ca         1 JRW      -0.087300
      5 C17          3.7560    -0.7460     0.8100 ca         1 JRW      -0.119000
      6 C20          2.9750     0.6910    -0.9660 ca         1 JRW      -0.117000
      7 C21         -2.5730     2.4990     0.5790 c3         1 JRW      -0.038700
      8 C22         -3.7190     1.9160     1.4530 c3         1 JRW      -0.094600
      9 O01         -0.1340    -1.1720     2.4030 oh         1 JRW      -0.648000
     10 C02         -0.0660    -0.3480     1.2500 c5         1 JRW       0.395700
     11 N03         -0.9890    -0.8260     0.2160 n          1 JRW      -0.427800
     12 C04         -0.8140    -2.2230    -0.2130 cy         1 JRW       0.098700
     13 C05         -2.0310    -3.2070    -0.2090 cy         1 JRW      -0.104400
     14 C06         -1.2750    -3.9640    -1.3510 cy         1 JRW      -0.087400
     15 C07         -0.7030    -2.5600    -1.7380 cy         1 JRW      -0.104400
     16 C08         -0.5910     1.0830     1.5740 c5         1 JRW      -0.108400
     17 C09         -1.3900     1.4950     0.2970 c5         1 JRW       0.119200
     18 O11         -2.8010    -0.1260    -1.0600 o          1 JRW      -0.546000
     19 C14          1.6440     0.5910    -0.5020 ca         1 JRW      -0.047300
     20 C16          2.4430    -0.8610     1.2870 ca         1 JRW      -0.073000
     21 C18          4.0300     0.0310    -0.3200 ca         1 JRW      -0.062300
     22 C19          5.4530     0.1610    -0.8420 c3         1 JRW      -0.047800
     23 C23         -3.1850     3.1400    -0.6990 c3         1 JRW      -0.094600
     24 H1          -0.8700     2.7280    -1.2720 hn         1 JRW       0.428000
     25 H3           0.0330     0.5700    -1.9380 h1         1 JRW       0.045700
     26 H4           1.0930     1.9500    -2.0670 h1         1 JRW       0.045700
     27 H6           3.1940     1.2870    -1.8490 ha         1 JRW       0.110000
     28 H7          -2.1510     3.3320     1.1550 hc         1 JRW       0.056700
     29 H8          -4.2190     1.0790     0.9520 hc         1 JRW       0.040033
     30 H9          -3.3580     1.5660     2.4260 hc         1 JRW       0.040033
     31 H10         -4.4770     2.6830     1.6520 hc         1 JRW       0.040033
     32 H11         -1.0840    -1.3790     2.5190 ho         1 JRW       0.458000
     33 H12          0.0370    -2.6600     0.3270 h1         1 JRW       0.069700
     34 H13         -2.1850    -3.7700     0.7180 hc         1 JRW       0.059700
     35 H14         -2.9880    -2.7660    -0.5120 hc         1 JRW       0.059700
     36 H15         -0.5230    -4.6840    -1.0030 hc         1 JRW       0.049700
     37 H16         -1.9040    -4.4510    -2.1040 hc         1 JRW       0.049700
     38 H17         -1.3530    -1.9700    -2.3950 hc         1 JRW       0.059700
     39 H18          0.3100    -2.5510    -2.1530 hc         1 JRW       0.059700
     40 H19         -1.2360     1.0490     2.4560 hc         1 JRW       0.073200
     41 H20          0.2130     1.7820     1.8320 hc         1 JRW       0.073200
     42 H21          2.2810    -1.4730     2.1700 ha         1 JRW       0.131000
     43 H22          5.9350     1.0600    -0.4420 hc         1 JRW       0.043367
     44 H23          6.0660    -0.7030    -0.5570 hc         1 JRW       0.043367
     45 H24          5.4720     0.2290    -1.9360 hc         1 JRW       0.043367
     46 H25         -3.6100     2.3810    -1.3650 hc         1 JRW       0.040033
     47 H26         -3.9900     3.8360    -0.4310 hc         1 JRW       0.040033
     48 H27         -2.4410     3.7150    -1.2610 hc         1 JRW       0.040033
     49 H5           4.5620    -1.2640     1.3260 ha         1 JRW       0.114000
@<TRIPOS>BOND
     1     1    11 1   
     2     1    17 1   
     3     1    18 2   
     4     2     3 1   
     5     2    17 1   
     6     2    24 1   
     7     3    19 1   
     8     3    25 1   
     9     3    26 1   
    10     4    10 1   
    11     4    19 ar  
    12     4    20 ar  
    13     5    20 ar  
    14     5    21 ar  
    15     5    49 1   
    16     6    19 ar  
    17     6    21 ar  
    18     6    27 1   
    19     7     8 1   
    20     7    17 1   
    21     7    23 1   
    22     7    28 1   
    23     8    29 1   
    24     8    30 1   
    25     8    31 1   
    26     9    10 1   
    27     9    32 1   
    28    10    11 1   
    29    10    16 1   
    30    11    12 1   
    31    12    13 1   
    32    12    15 1   
    33    12    33 1   
    34    13    14 1   
    35    13    34 1   
    36    13    35 1   
    37    14    15 1   
    38    14    36 1   
    39    14    37 1   
    40    15    38 1   
    41    15    39 1   
    42    16    17 1   
    43    16    40 1   
    44    16    41 1   
    45    20    42 1   
    46    21    22 1   
    47    22    43 1   
    48    22    44 1   
    49    22    45 1   
    50    23    46 1   
    51    23    47 1   
    52    23    48 1   
@<TRIPOS>SUBSTRUCTURE
     1 JRW         1 TEMP              0 ****  ****    0 ROOT
