@<TRIPOS>MOLECULE
JRW
   49    52     1     0     0
SMALL
bcc


@<TRIPOS>ATOM
      1 C10         -1.7910     0.0960    -0.2720 c          1 JRW       0.676500
      2 N12         -0.4010     2.0670    -0.6500 n7         1 JRW      -0.802200
      3 C13          0.5580     1.1960    -1.3200 c3         1 JRW       0.203100
      4 C15          1.3830    -0.2060     0.6820 ca         1 JRW      -0.087300
      5 C17          3.7490    -0.7010     0.8450 ca         1 JRW      -0.137000
      6 C20          2.9440     0.6790    -0.9160 ca         1 JRW      -0.135000
      7 C21         -2.5170     2.4430     0.5540 c3         1 JRW      -0.038700
      8 C22         -3.6170     1.8230     1.4170 c3         1 JRW      -0.094600
      9 O01          0.0190    -1.1470     2.3550 oh         1 JRW      -0.585800
     10 C02         -0.0240    -0.3130     1.2420 c5         1 JRW       0.372500
     11 N03         -0.9600    -0.8370     0.2430 n          1 JRW      -0.494800
     12 C04         -0.8480    -2.1950    -0.2280 cy         1 JRW       0.098700
     13 C05         -2.0540    -3.1500    -0.1810 cy         1 JRW      -0.104400
     14 C06         -1.5040    -3.7960    -1.4690 cy         1 JRW      -0.087400
     15 C07         -0.6810    -2.5170    -1.7260 cy         1 JRW      -0.104400
     16 C08         -0.6170     1.0660     1.5470 c5         1 JRW      -0.108400
     17 C09         -1.3590     1.4620     0.2760 c5         1 JRW       0.119200
     18 O11         -2.6540    -0.1110    -1.1080 o          1 JRW      -0.621500
     19 C14          1.6330     0.5600    -0.4670 ca         1 JRW      -0.047300
     20 C16          2.4500    -0.8250     1.3210 ca         1 JRW      -0.091000
     21 C18          4.0190     0.0600    -0.2820 ca         1 JRW      -0.062300
     22 C19          5.4170     0.2330    -0.8000 c3         1 JRW      -0.047800
     23 C23         -3.1580     3.0510    -0.6960 c3         1 JRW      -0.094600
     24 H1          -0.9090     2.5380    -1.3860 hn         1 JRW       0.372800
     25 H3           0.0800     0.4020    -1.9110 h1         1 JRW       0.045700
     26 H4           1.0580     1.8280    -2.0550 h1         1 JRW       0.045700
     27 H6           3.1350     1.2740    -1.8040 ha         1 JRW       0.128000
     28 H7          -2.0710     3.2670     1.1240 hc         1 JRW       0.056700
     29 H8          -4.1170     1.0020     0.9010 hc         1 JRW       0.040033
     30 H9          -3.2560     1.4500     2.3750 hc         1 JRW       0.040033
     31 H10         -4.3740     2.5760     1.6380 hc         1 JRW       0.040033
     32 H11         -0.8500    -1.1550     2.7720 ho         1 JRW       0.419000
     33 H12         -0.0210    -2.6510     0.3190 h1         1 JRW       0.069700
     34 H13         -2.1580    -3.7740     0.7070 hc         1 JRW       0.059700
     35 H14         -2.9940    -2.6310    -0.3670 hc         1 JRW       0.059700
     36 H15         -0.8670    -4.6550    -1.2550 hc         1 JRW       0.049700
     37 H16         -2.2290    -4.0810    -2.2310 hc         1 JRW       0.049700
     38 H17         -1.2220    -1.8210    -2.3650 hc         1 JRW       0.059700
     39 H18          0.3390    -2.6240    -2.0940 hc         1 JRW       0.059700
     40 H19         -1.3130     0.9660     2.3820 hc         1 JRW       0.073200
     41 H20          0.1360     1.8000     1.8210 hc         1 JRW       0.073200
     42 H21          2.2800    -1.4190     2.2070 ha         1 JRW       0.149000
     43 H22          5.7770     1.2500    -0.6290 hc         1 JRW       0.043367
     44 H23          6.1110    -0.4490    -0.3110 hc         1 JRW       0.043367
     45 H24          5.4710     0.0520    -1.8740 hc         1 JRW       0.043367
     46 H25         -3.6130     2.2910    -1.3290 hc         1 JRW       0.040033
     47 H26         -3.9450     3.7430    -0.3930 hc         1 JRW       0.040033
     48 H27         -2.4640     3.6340    -1.3030 hc         1 JRW       0.040033
     49 H5           4.5550    -1.2040     1.3650 ha         1 JRW       0.132000
@<TRIPOS>BOND
     1     1    11 1   
     2     1    17 1   
     3     1    18 2   
     4     2     3 1   
     5     2    17 1   
     6     2    24 1   
     7     3    19 1   
     8     3    25 1   
     9     3    26 1   
    10     4    10 1   
    11     4    19 ar  
    12     4    20 ar  
    13     5    20 ar  
    14     5    21 ar  
    15     5    49 1   
    16     6    19 ar  
    17     6    21 ar  
    18     6    27 1   
    19     7     8 1   
    20     7    17 1   
    21     7    23 1   
    22     7    28 1   
    23     8    29 1   
    24     8    30 1   
    25     8    31 1   
    26     9    10 1   
    27     9    32 1   
    28    10    11 1   
    29    10    16 1   
    30    11    12 1   
    31    12    13 1   
    32    12    15 1   
    33    12    33 1   
    34    13    14 1   
    35    13    34 1   
    36    13    35 1   
    37    14    15 1   
    38    14    36 1   
    39    14    37 1   
    40    15    38 1   
    41    15    39 1   
    42    16    17 1   
    43    16    40 1   
    44    16    41 1   
    45    20    42 1   
    46    21    22 1   
    47    22    43 1   
    48    22    44 1   
    49    22    45 1   
    50    23    46 1   
    51    23    47 1   
    52    23    48 1   
@<TRIPOS>SUBSTRUCTURE
     1 JRW         1 TEMP              0 ****  ****    0 ROOT
