@<TRIPOS>MOLECULE
JRX
   52    55     1     0     0
SMALL
abcg2


@<TRIPOS>ATOM
      1 N3          15.2060    37.9930   -14.8130 nb         1 JRX      -0.706000
      2 C7          13.5760    37.3260   -13.1880 ca         1 JRX       0.327300
      3 C8          15.0780    43.5560   -10.2970 ca         1 JRX      -0.312500
      4 C13         15.8160    41.5540   -12.7230 c6         1 JRX       0.181800
      5 C15         15.6560    40.3950   -13.6890 c6         1 JRX       0.196800
      6 C17         16.3990    43.4260    -9.8880 ca         1 JRX      -0.013500
      7 C20         14.3260    43.0390    -8.0840 ca         1 JRX      -0.133000
      8 C21         16.6700    43.0960    -8.5700 ca         1 JRX      -0.133000
      9 C22         12.8060    37.5820   -11.9210 c3         1 JRX      -0.126700
     10 C24         15.9850    36.3520   -16.3730 ca         1 JRX      -0.085000
     11 C26         11.2920    37.5440   -12.1230 c3         1 JRX      -0.087100
     12 C28         14.9940    34.1490   -16.3470 ca         1 JRX      -0.112000
     13 C2          14.4310    38.3140   -13.8160 ca         1 JRX       0.543900
     14 N4          14.5910    42.3540   -12.7010 n3         1 JRX      -0.704500
     15 N5          13.5030    36.1250   -13.6770 nb         1 JRX      -0.636000
     16 N6          14.5040    39.6000   -13.3080 nh         1 JRX      -0.754300
     17 C9          15.1560    36.7310   -15.2990 ca         1 JRX       0.257000
     18 O10         15.8460    44.5170   -12.6160 o          1 JRX      -0.533000
     19 O11         13.3910    44.4620   -12.0870 o          1 JRX      -0.533000
     20 C12         13.4180    41.5590   -12.3440 c6         1 JRX       0.181800
     21 C14         14.2600    35.7920   -14.7520 ca         1 JRX       0.208000
     22 C16         13.2930    40.4100   -13.3230 c6         1 JRX       0.196800
     23 C18         14.0350    43.3690    -9.3970 ca         1 JRX      -0.013500
     24 C19         15.6430    42.8900    -7.6520 ca         1 JRX      -0.017300
     25 C23         15.9430    42.4900    -6.2390 c3         1 JRX      -0.058800
     26 C25         14.1870    34.4940   -15.2930 ca         1 JRX      -0.066000
     27 C27         15.8990    35.0830   -16.8870 ca         1 JRX      -0.096000
     28 H1          16.6520    42.1660   -13.0560 h1         1 JRX       0.062950
     29 H2          16.0470    41.1640   -11.7240 h1         1 JRX       0.062950
     30 H3          16.5560    39.7840   -13.6360 h1         1 JRX       0.059950
     31 H4          15.5720    40.7740   -14.7150 h1         1 JRX       0.059950
     32 H5          17.2160    43.5840   -10.5800 ha         1 JRX       0.133500
     33 H6          13.5120    42.8990    -7.3830 ha         1 JRX       0.118000
     34 H7          17.7010    43.0000    -8.2520 ha         1 JRX       0.118000
     35 H8          13.0830    36.7960   -11.2140 hc         1 JRX       0.060200
     36 H9          13.1120    38.5220   -11.4620 hc         1 JRX       0.060200
     37 H10         16.6740    37.0790   -16.7840 ha         1 JRX       0.131000
     38 H11         10.7790    37.6960   -11.1740 hc         1 JRX       0.039367
     39 H12         10.9500    38.3170   -12.8120 hc         1 JRX       0.039367
     40 H13         10.9820    36.5810   -12.5260 hc         1 JRX       0.039367
     41 H14         14.9410    33.1530   -16.7670 ha         1 JRX       0.119000
     42 H15         13.4970    41.1640   -11.3230 h1         1 JRX       0.062950
     43 H16         12.5220    42.1720   -12.4100 h1         1 JRX       0.062950
     44 H17         13.1110    40.8050   -14.3310 h1         1 JRX       0.059950
     45 H18         12.4220    39.8210   -13.0500 h1         1 JRX       0.059950
     46 H19         13.0050    43.4840    -9.7050 ha         1 JRX       0.133500
     47 H20         15.9170    41.4030    -6.1380 hc         1 JRX       0.050033
     48 H21         16.9320    42.8220    -5.9290 hc         1 JRX       0.050033
     49 H22         15.2090    42.8960    -5.5440 hc         1 JRX       0.050033
     50 H23         13.4930    33.7860   -14.8580 ha         1 JRX       0.131000
     51 H24         16.5320    34.7930   -17.7150 ha         1 JRX       0.118000
     52 S1          14.7090    43.8550   -12.0010 sy         1 JRX       1.148600
@<TRIPOS>BOND
     1     1    13 ar  
     2     1    17 ar  
     3     2     9 1   
     4     2    13 ar  
     5     2    15 ar  
     6     3     6 ar  
     7     3    23 ar  
     8     3    52 1   
     9     4     5 1   
    10     4    14 1   
    11     4    28 1   
    12     4    29 1   
    13     5    16 1   
    14     5    30 1   
    15     5    31 1   
    16     6     8 ar  
    17     6    32 1   
    18     7    23 ar  
    19     7    24 ar  
    20     7    33 1   
    21     8    24 ar  
    22     8    34 1   
    23     9    11 1   
    24     9    35 1   
    25     9    36 1   
    26    10    17 ar  
    27    10    27 ar  
    28    10    37 1   
    29    11    38 1   
    30    11    39 1   
    31    11    40 1   
    32    12    26 ar  
    33    12    27 ar  
    34    12    41 1   
    35    13    16 1   
    36    14    20 1   
    37    14    52 1   
    38    15    21 ar  
    39    16    22 1   
    40    17    21 ar  
    41    18    52 2   
    42    19    52 2   
    43    20    22 1   
    44    20    42 1   
    45    20    43 1   
    46    21    26 ar  
    47    22    44 1   
    48    22    45 1   
    49    23    46 1   
    50    24    25 1   
    51    25    47 1   
    52    25    48 1   
    53    25    49 1   
    54    26    50 1   
    55    27    51 1   
@<TRIPOS>SUBSTRUCTURE
     1 JRX         1 TEMP              0 ****  ****    0 ROOT
