@<TRIPOS>MOLECULE
JRX
   52    55     1     0     0
SMALL
No Charge or Current Charge


@<TRIPOS>ATOM
      1 N3          15.0340    38.0270   -15.0290 nb         1 JRX      -0.706000
      2 C7          13.8420    37.2860   -13.0310 ca         1 JRX       0.327300
      3 C8          15.0720    43.5490   -10.3470 ca         1 JRX      -0.312500
      4 C13         15.9810    41.7060   -12.8670 c6         1 JRX       0.181800
      5 C15         15.8340    40.4420   -13.7670 c6         1 JRX       0.196800
      6 C17         16.3380    43.2710    -9.7930 ca         1 JRX      -0.013500
      7 C20         14.0330    43.0260    -8.2040 ca         1 JRX      -0.133000
      8 C21         16.4440    42.8660    -8.4510 ca         1 JRX      -0.133000
      9 C22         13.2530    37.5490   -11.6420 c3         1 JRX      -0.126700
     10 C24         15.5050    36.3920   -16.7010 ca         1 JRX      -0.085000
     11 C26         11.7120    37.4580   -11.6010 c3         1 JRX      -0.087100
     12 C28         14.8210    34.0790   -16.4130 ca         1 JRX      -0.112000
     13 C2          14.4800    38.3060   -13.8250 ca         1 JRX       0.543900
     14 N4          14.7700    42.5790   -12.9010 n3         1 JRX      -0.704500
     15 N5          13.7640    35.9930   -13.4540 nb         1 JRX      -0.636000
     16 N6          14.6000    39.6620   -13.4390 nh         1 JRX      -0.754300
     17 C9          14.9510    36.7390   -15.4540 ca         1 JRX       0.257000
     18 O10         16.1990    44.6440   -12.5190 o          1 JRX      -0.533000
     19 O11         13.6640    44.7770   -12.2750 o          1 JRX      -0.533000
     20 C12         13.5620    41.7830   -12.5320 c6         1 JRX       0.181800
     21 C14         14.3140    35.7190   -14.6670 ca         1 JRX       0.208000
     22 C16         13.3800    40.5240   -13.4320 c6         1 JRX       0.196800
     23 C18         13.9180    43.4310    -9.5440 ca         1 JRX      -0.013500
     24 C19         15.2950    42.7420    -7.6490 ca         1 JRX      -0.017300
     25 C23         15.4140    42.3000    -6.1990 c3         1 JRX      -0.058800
     26 C25         14.2620    34.4030   -15.1650 ca         1 JRX      -0.066000
     27 C27         15.4430    35.0730   -17.1810 ca         1 JRX      -0.096000
     28 H1          16.8700    42.2580   -13.2050 h1         1 JRX       0.062950
     29 H2          16.1830    41.3710   -11.8390 h1         1 JRX       0.062950
     30 H3          16.7280    39.8160   -13.6340 h1         1 JRX       0.059950
     31 H4          15.8090    40.7610   -14.8190 h1         1 JRX       0.059950
     32 H5          17.2400    43.3620   -10.3960 ha         1 JRX       0.133500
     33 H6          13.1370    42.9330    -7.5940 ha         1 JRX       0.118000
     34 H7          17.4250    42.6490    -8.0340 ha         1 JRX       0.118000
     35 H8          13.6650    36.8240   -10.9300 hc         1 JRX       0.060200
     36 H9          13.5600    38.5330   -11.2690 hc         1 JRX       0.060200
     37 H10         15.9890    37.1580   -17.3020 ha         1 JRX       0.131000
     38 H11         11.3420    37.6860   -10.5940 hc         1 JRX       0.039367
     39 H12         11.2570    38.1680   -12.3020 hc         1 JRX       0.039367
     40 H13         11.3740    36.4490   -11.8670 hc         1 JRX       0.039367
     41 H14         14.7710    33.0570   -16.7820 ha         1 JRX       0.119000
     42 H15         13.6280    41.4480   -11.4870 h1         1 JRX       0.062950
     43 H16         12.6520    42.3940   -12.6170 h1         1 JRX       0.062950
     44 H17         13.1540    40.8540   -14.4560 h1         1 JRX       0.059950
     45 H18         12.5070    39.9620   -13.0730 h1         1 JRX       0.059950
     46 H19         12.9320    43.6470    -9.9540 ha         1 JRX       0.133500
     47 H20         15.3480    41.2090    -6.1180 hc         1 JRX       0.050033
     48 H21         16.3710    42.6120    -5.7640 hc         1 JRX       0.050033
     49 H22         14.6170    42.7310    -5.5830 hc         1 JRX       0.050033
     50 H23         13.7820    33.6260   -14.5750 ha         1 JRX       0.131000
     51 H24         15.8760    34.8250   -18.1470 ha         1 JRX       0.118000
     52 S1          14.9290    44.0600   -12.0710 sy         1 JRX       1.148600
@<TRIPOS>BOND
     1     1    13 ar  
     2     1    17 ar  
     3     2     9 1   
     4     2    13 ar  
     5     2    15 ar  
     6     3     6 ar  
     7     3    23 ar  
     8     3    52 1   
     9     4     5 1   
    10     4    14 1   
    11     4    28 1   
    12     4    29 1   
    13     5    16 1   
    14     5    30 1   
    15     5    31 1   
    16     6     8 ar  
    17     6    32 1   
    18     7    23 ar  
    19     7    24 ar  
    20     7    33 1   
    21     8    24 ar  
    22     8    34 1   
    23     9    11 1   
    24     9    35 1   
    25     9    36 1   
    26    10    17 ar  
    27    10    27 ar  
    28    10    37 1   
    29    11    38 1   
    30    11    39 1   
    31    11    40 1   
    32    12    26 ar  
    33    12    27 ar  
    34    12    41 1   
    35    13    16 1   
    36    14    20 1   
    37    14    52 1   
    38    15    21 ar  
    39    16    22 1   
    40    17    21 ar  
    41    18    52 2   
    42    19    52 2   
    43    20    22 1   
    44    20    42 1   
    45    20    43 1   
    46    21    26 ar  
    47    22    44 1   
    48    22    45 1   
    49    23    46 1   
    50    24    25 1   
    51    25    47 1   
    52    25    48 1   
    53    25    49 1   
    54    26    50 1   
    55    27    51 1   
@<TRIPOS>SUBSTRUCTURE
     1 JRX         1 TEMP              0 ****  ****    0 ROOT
