@<TRIPOS>MOLECULE
JRY
   24    23     1     0     0
SMALL
No Charge or Current Charge


@<TRIPOS>ATOM
      1 C07         -3.4160     0.0060    -0.0190 c          1 JRY       0.727000
      2 C09         -0.9390    -0.3960    -0.0150 c3         1 JRY       0.113000
      3 C10          0.3590     0.4360     0.0070 c3         1 JRY      -0.090400
      4 C11          1.6320    -0.4380    -0.0030 c3         1 JRY      -0.074400
      5 C12          2.9350     0.3900     0.0190 c3         1 JRY      -0.076400
      6 C13          4.2080    -0.4840     0.0090 c3         1 JRY      -0.076400
      7 C14          5.5090     0.3420     0.0310 c3         1 JRY      -0.087100
      8 N08         -2.1280     0.4540    -0.0050 ns         1 JRY      -0.553900
      9 O15         -3.6290    -1.1920    -0.0420 o          1 JRY      -0.749000
     10 O1          -4.2850     0.8550    -0.0080 o          1 JRY      -0.749000
     11 H1          -0.9580    -1.0200    -0.9180 h1         1 JRY       0.018200
     12 H2           0.3730     1.1030    -0.8640 hc         1 JRY       0.030700
     13 H3           1.6160    -1.1070     0.8670 hc         1 JRY       0.033200
     14 H4           1.6240    -1.0750    -0.8960 hc         1 JRY       0.033200
     15 H5           2.9520     1.0590    -0.8510 hc         1 JRY       0.032700
     16 H6           2.9430     1.0270     0.9130 hc         1 JRY       0.032700
     17 H7           4.1970    -1.1530     0.8790 hc         1 JRY       0.034200
     18 H8           4.2050    -1.1210    -0.8840 hc         1 JRY       0.034200
     19 H9           5.5670     0.9970    -0.8470 hc         1 JRY       0.025033
     20 H10          5.5580     0.9640     0.9320 hc         1 JRY       0.025033
     21 H11          6.3820    -0.3210     0.0230 hc         1 JRY       0.025033
     22 H12         -2.0050     1.4570     0.0130 hn         1 JRY       0.244500
     23 H14         -0.9670    -1.0530     0.8650 h1         1 JRY       0.018200
     24 H15          0.3640     1.0710     0.9010 hc         1 JRY       0.030700
@<TRIPOS>BOND
     1     1     8 1   
     2     1     9 1   
     3     1    10 1   
     4     2     3 1   
     5     2     8 1   
     6     2    11 1   
     7     2    23 1   
     8     3     4 1   
     9     3    12 1   
    10     3    24 1   
    11     4     5 1   
    12     4    13 1   
    13     4    14 1   
    14     5     6 1   
    15     5    15 1   
    16     5    16 1   
    17     6     7 1   
    18     6    17 1   
    19     6    18 1   
    20     7    19 1   
    21     7    20 1   
    22     7    21 1   
    23     8    22 1   
@<TRIPOS>SUBSTRUCTURE
     1 JRY         1 TEMP              0 ****  ****    0 ROOT
