@<TRIPOS>MOLECULE
JRY
   24    23     1     0     0
SMALL
bcc


@<TRIPOS>ATOM
      1 C07         -3.3660     0.0050    -0.1720 c          1 JRY       1.004600
      2 C09         -0.9120    -0.3470     0.0170 c3         1 JRY       0.113000
      3 C10          0.3780     0.4610    -0.0100 c3         1 JRY      -0.090400
      4 C11          1.6210    -0.4180     0.0480 c3         1 JRY      -0.074400
      5 C12          2.9180     0.3790    -0.0110 c3         1 JRY      -0.076400
      6 C13          4.1660    -0.4930     0.0530 c3         1 JRY      -0.076400
      7 C14          5.4540     0.3160    -0.0220 c3         1 JRY      -0.087100
      8 N08         -2.0670     0.5170    -0.0210 ns         1 JRY      -0.620900
      9 O15         -3.4730    -1.1560    -0.6220 o          1 JRY      -0.854300
     10 O1          -4.3000     0.7810     0.1320 o          1 JRY      -0.854300
     11 H1          -0.9360    -1.0090    -0.8510 h1         1 JRY       0.018200
     12 H2           0.4000     1.0730    -0.9170 hc         1 JRY       0.030700
     13 H3           1.6030    -1.0150     0.9670 hc         1 JRY       0.033200
     14 H4           1.5990    -1.1350    -0.7800 hc         1 JRY       0.033200
     15 H5           2.9380     0.9710    -0.9330 hc         1 JRY       0.032700
     16 H6           2.9390     1.1020     0.8120 hc         1 JRY       0.032700
     17 H7           4.1520    -1.0770     0.9790 hc         1 JRY       0.034200
     18 H8           4.1420    -1.2200    -0.7640 hc         1 JRY       0.034200
     19 H9           5.5070     0.8820    -0.9550 hc         1 JRY       0.025033
     20 H10          5.5190     1.0320     0.8000 hc         1 JRY       0.025033
     21 H11          6.3360    -0.3230     0.0260 hc         1 JRY       0.025033
     22 H12         -2.0110     1.3150     0.5940 hn         1 JRY       0.244500
     23 H14         -0.9030    -1.0030     0.9010 h1         1 JRY       0.018200
     24 H15          0.3930     1.1600     0.8350 hc         1 JRY       0.030700
@<TRIPOS>BOND
     1     1     8 1   
     2     1     9 1   
     3     1    10 1   
     4     2     3 1   
     5     2     8 1   
     6     2    11 1   
     7     2    23 1   
     8     3     4 1   
     9     3    12 1   
    10     3    24 1   
    11     4     5 1   
    12     4    13 1   
    13     4    14 1   
    14     5     6 1   
    15     5    15 1   
    16     5    16 1   
    17     6     7 1   
    18     6    17 1   
    19     6    18 1   
    20     7    19 1   
    21     7    20 1   
    22     7    21 1   
    23     8    22 1   
@<TRIPOS>SUBSTRUCTURE
     1 JRY         1 TEMP              0 ****  ****    0 ROOT
