@<TRIPOS>MOLECULE
JRZ
   47    48     1     0     0
SMALL
No Charge or Current Charge


@<TRIPOS>ATOM
      1 C1          -5.2140    -1.2490     0.0900 c5         1 JRZ      -0.035100
      2 N1           4.3430    -0.4550    -0.0500 n7         1 JRZ      -0.861400
      3 O1          -0.5500    -0.1960    -0.0460 os         1 JRZ      -0.333100
      4 C2          -4.2910    -2.4370     0.5530 c5         1 JRZ      -0.080400
      5 O2           2.0200    -0.9540    -1.3500 oh         1 JRZ      -0.627000
      6 C3          -2.8450    -2.0790     0.0430 c5         1 JRZ      -0.021100
      7 C4          -2.9160    -0.5730     0.0310 ca         1 JRZ      -0.114300
      8 C5          -4.2200    -0.1140     0.0560 ca         1 JRZ      -0.052300
      9 C6          -4.5060     1.2650     0.0340 ca         1 JRZ      -0.100300
     10 C7          -5.9430     1.7690     0.0530 c3         1 JRZ      -0.036800
     11 C8          -3.4280     2.1730    -0.0070 ca         1 JRZ      -0.074000
     12 C9          -2.0970     1.7070    -0.0320 ca         1 JRZ      -0.199000
     13 C10         -1.8310     0.3180    -0.0160 ca         1 JRZ       0.150100
     14 C11          0.6150     0.6510    -0.0950 c3         1 JRZ       0.129600
     15 C12          1.8840    -0.2440    -0.1080 c3         1 JRZ       0.167300
     16 C13          3.2260     0.5190     0.1440 c3         1 JRZ       0.153500
     17 C14          3.4170     1.7520    -0.7810 c3         1 JRZ      -0.096100
     18 C16          5.9490     0.3950     1.6530 c3         1 JRZ      -0.108100
     19 C17          6.6770    -1.1500    -0.2420 c3         1 JRZ      -0.108100
     20 H1          -5.6420    -1.4340    -0.9020 hc         1 JRZ       0.051700
     21 H1A         -6.0440    -1.0800     0.7860 hc         1 JRZ       0.051700
     22 HN1          4.1840    -1.2520     0.5790 hn         1 JRZ       0.415000
     23 H2          -4.2920    -2.5040     1.6480 hc         1 JRZ       0.043700
     24 H2A         -4.6380    -3.4070     0.1800 hc         1 JRZ       0.043700
     25 HO2          2.9990    -1.0450    -1.4340 ho         1 JRZ       0.440000
     26 H3          -2.0650    -2.4700     0.7050 hc         1 JRZ       0.057700
     27 H3A         -2.6610    -2.4770    -0.9620 hc         1 JRZ       0.057700
     28 H7          -6.4300     1.5280     1.0060 hc         1 JRZ       0.038367
     29 H7A         -5.9950     2.8560    -0.0800 hc         1 JRZ       0.038367
     30 H7B         -6.5320     1.3110    -0.7500 hc         1 JRZ       0.038367
     31 H8          -3.6190     3.2440    -0.0220 ha         1 JRZ       0.108000
     32 H9          -1.2920     2.4350    -0.0670 ha         1 JRZ       0.112000
     33 H11          0.5950     1.2810    -0.9940 h1         1 JRZ       0.036200
     34 H11A         0.6460     1.3030     0.7870 h1         1 JRZ       0.036200
     35 H12          1.7740    -0.9650     0.7140 h1         1 JRZ       0.080700
     36 H13          3.2100     0.8750     1.1820 h1         1 JRZ       0.021700
     37 H14          2.5820     2.4540    -0.6810 hc         1 JRZ       0.040367
     38 H14A         4.3230     2.3090    -0.5170 hc         1 JRZ       0.040367
     39 H14B         3.4900     1.4510    -1.8330 hc         1 JRZ       0.040367
     40 H15          5.9770     0.8570    -0.4570 h1         1 JRZ       0.056700
     41 H16          5.6750    -0.4240     2.3280 hc         1 JRZ       0.037367
     42 H16A         7.0020     0.6450     1.8300 hc         1 JRZ       0.037367
     43 H16B         5.3530     1.2770     1.9130 hc         1 JRZ       0.037367
     44 H17          6.5220    -1.4100    -1.2960 hc         1 JRZ       0.037367
     45 H17A         7.7240    -0.8490    -0.1190 hc         1 JRZ       0.037367
     46 H17B         6.5040    -2.0460     0.3660 hc         1 JRZ       0.037367
     47 C15          5.7350    -0.0060     0.1770 c3         1 JRZ       0.173500
@<TRIPOS>BOND
     1     1     4 1   
     2     1     8 1   
     3     1    20 1   
     4     1    21 1   
     5     2    16 1   
     6     2    22 1   
     7     2    47 1   
     8     3    13 1   
     9     3    14 1   
    10     4     6 1   
    11     4    23 1   
    12     4    24 1   
    13     5    15 1   
    14     5    25 1   
    15     6     7 1   
    16     6    26 1   
    17     6    27 1   
    18     7     8 ar  
    19     7    13 ar  
    20     8     9 ar  
    21     9    10 1   
    22     9    11 ar  
    23    10    28 1   
    24    10    29 1   
    25    10    30 1   
    26    11    12 ar  
    27    11    31 1   
    28    12    13 ar  
    29    12    32 1   
    30    14    15 1   
    31    14    33 1   
    32    14    34 1   
    33    15    16 1   
    34    15    35 1   
    35    16    17 1   
    36    16    36 1   
    37    17    37 1   
    38    17    38 1   
    39    17    39 1   
    40    18    41 1   
    41    18    42 1   
    42    18    43 1   
    43    18    47 1   
    44    19    44 1   
    45    19    45 1   
    46    19    46 1   
    47    19    47 1   
    48    40    47 1   
@<TRIPOS>SUBSTRUCTURE
     1 JRZ         1 TEMP              0 ****  ****    0 ROOT
