@<TRIPOS>MOLECULE
JRZ
   47    48     1     0     0
SMALL
abcg2


@<TRIPOS>ATOM
      1 C1          -5.0530    -1.2170     0.1250 c5         1 JRZ      -0.035100
      2 N1           4.2880    -0.5020    -0.0820 n7         1 JRZ      -0.861400
      3 O1          -0.4680    -0.2520    -0.0880 os         1 JRZ      -0.333100
      4 C2          -4.1780    -2.4410     0.4420 c5         1 JRZ      -0.080400
      5 O2           1.8420    -0.9870    -1.5540 oh         1 JRZ      -0.627000
      6 C3          -2.7550    -2.0650    -0.0070 c5         1 JRZ      -0.021100
      7 C4          -2.7740    -0.5640     0.0450 ca         1 JRZ      -0.114300
      8 C5          -4.0690    -0.0780     0.1190 ca         1 JRZ      -0.052300
      9 C6          -4.3440     1.2900     0.1510 ca         1 JRZ      -0.100300
     10 C7          -5.7540     1.7980     0.2160 c3         1 JRZ      -0.036800
     11 C8          -3.2510     2.1470     0.1220 ca         1 JRZ      -0.074000
     12 C9          -1.9400     1.6800     0.0500 ca         1 JRZ      -0.199000
     13 C10         -1.6910     0.3110    -0.0010 ca         1 JRZ       0.150100
     14 C11          0.6700     0.5850    -0.1320 c3         1 JRZ       0.129600
     15 C12          1.8850    -0.3100    -0.3220 c3         1 JRZ       0.167300
     16 C13          3.1950     0.4580    -0.0840 c3         1 JRZ       0.153500
     17 C14          3.4320     1.5480    -1.1240 c3         1 JRZ      -0.096100
     18 C16          5.6260     0.5300     1.7780 c3         1 JRZ      -0.108100
     19 C17          6.6000    -1.1520     0.1950 c3         1 JRZ      -0.108100
     20 H1          -5.5320    -1.3050    -0.8560 hc         1 JRZ       0.051700
     21 H1A         -5.8570    -1.0810     0.8520 hc         1 JRZ       0.051700
     22 HN1          4.0320    -1.2840     0.5120 hn         1 JRZ       0.415000
     23 H2          -4.1810    -2.6140     1.5200 hc         1 JRZ       0.043700
     24 H2A         -4.5400    -3.3530    -0.0330 hc         1 JRZ       0.043700
     25 HO2          1.9440    -0.3460    -2.2650 ho         1 JRZ       0.440000
     26 H3          -1.9870    -2.5100     0.6280 hc         1 JRZ       0.057700
     27 H3A         -2.5520    -2.4090    -1.0270 hc         1 JRZ       0.057700
     28 H7          -6.2620     1.4580     1.1210 hc         1 JRZ       0.038367
     29 H7A         -5.7870     2.8870     0.2070 hc         1 JRZ       0.038367
     30 H7B         -6.3470     1.4410    -0.6290 hc         1 JRZ       0.038367
     31 H8          -3.4140     3.2180     0.1550 ha         1 JRZ       0.108000
     32 H9          -1.1340     2.4010     0.0350 ha         1 JRZ       0.112000
     33 H11          0.5830     1.3060    -0.9550 h1         1 JRZ       0.036200
     34 H11A         0.7630     1.1590     0.7970 h1         1 JRZ       0.036200
     35 H12          1.8290    -1.0930     0.4440 h1         1 JRZ       0.080700
     36 H13          3.0760     0.9550     0.8920 h1         1 JRZ       0.021700
     37 H14          2.6040     2.2550    -1.1610 hc         1 JRZ       0.040367
     38 H14A         4.3250     2.1280    -0.8910 hc         1 JRZ       0.040367
     39 H14B         3.5760     1.1290    -2.1230 hc         1 JRZ       0.040367
     40 H15          5.8940     0.7850    -0.3280 h1         1 JRZ       0.056700
     41 H16          5.3630    -0.2510     2.4970 hc         1 JRZ       0.037367
     42 H16A         6.6230     0.8940     2.0320 hc         1 JRZ       0.037367
     43 H16B         4.9310     1.3590     1.9170 hc         1 JRZ       0.037367
     44 H17          6.6270    -1.5180    -0.8330 hc         1 JRZ       0.037367
     45 H17A         7.6040    -0.8240     0.4650 hc         1 JRZ       0.037367
     46 H17B         6.3410    -1.9920     0.8450 hc         1 JRZ       0.037367
     47 C15          5.5940    -0.0190     0.3510 c3         1 JRZ       0.173500
@<TRIPOS>BOND
     1     1     4 1   
     2     1     8 1   
     3     1    20 1   
     4     1    21 1   
     5     2    16 1   
     6     2    22 1   
     7     2    47 1   
     8     3    13 1   
     9     3    14 1   
    10     4     6 1   
    11     4    23 1   
    12     4    24 1   
    13     5    15 1   
    14     5    25 1   
    15     6     7 1   
    16     6    26 1   
    17     6    27 1   
    18     7     8 ar  
    19     7    13 ar  
    20     8     9 ar  
    21     9    10 1   
    22     9    11 ar  
    23    10    28 1   
    24    10    29 1   
    25    10    30 1   
    26    11    12 ar  
    27    11    31 1   
    28    12    13 ar  
    29    12    32 1   
    30    14    15 1   
    31    14    33 1   
    32    14    34 1   
    33    15    16 1   
    34    15    35 1   
    35    16    17 1   
    36    16    36 1   
    37    17    37 1   
    38    17    38 1   
    39    17    39 1   
    40    18    41 1   
    41    18    42 1   
    42    18    43 1   
    43    18    47 1   
    44    19    44 1   
    45    19    45 1   
    46    19    46 1   
    47    19    47 1   
    48    40    47 1   
@<TRIPOS>SUBSTRUCTURE
     1 JRZ         1 TEMP              0 ****  ****    0 ROOT
