@<TRIPOS>MOLECULE
JS0
   50    52     1     0     0
SMALL
abcg2


@<TRIPOS>ATOM
      1 C02         15.2530    36.8570    38.4800 c3         1 JS0       0.109300
      2 C03         14.9050    37.6960    39.6810 ca         1 JS0       0.346300
      3 C04         13.8280    37.3560    40.5290 ca         1 JS0      -0.125000
      4 C05         13.5850    38.1370    41.6230 ca         1 JS0      -0.084000
      5 C06         14.4040    39.2540    41.8900 ca         1 JS0      -0.048000
      6 C07         14.2120    40.0940    43.0110 ca         1 JS0      -0.140000
      7 C08         15.0570    41.1480    43.2090 ca         1 JS0      -0.061000
      8 C09         16.1160    41.4170    42.3160 ca         1 JS0      -0.223000
      9 C10         16.3220    40.6210    41.2140 ca         1 JS0       0.184100
     10 C12         18.2860    41.7830    40.5420 c3         1 JS0       0.162600
     11 C13         19.2820    41.7090    39.4030 c3         1 JS0      -0.078400
     12 C14         20.4370    42.6880    39.5810 c3         1 JS0       0.169800
     13 C16         21.9100    41.2480    40.8440 c6         1 JS0       0.162800
     14 C17         22.6220    41.0720    42.1710 c6         1 JS0       0.167800
     15 C19         24.3430    42.0190    43.5850 c3         1 JS0       0.256900
     16 C20         23.6100    41.9650    44.8610 c1         1 JS0      -0.189100
     17 C21         22.9910    41.9260    45.8920 c1         1 JS0      -0.234000
     18 C22         22.7960    43.4420    42.3850 c6         1 JS0       0.167800
     19 C23         22.0840    43.6070    41.0560 c6         1 JS0       0.162800
     20 C24         15.4570    39.5050    40.9800 ca         1 JS0       0.252000
     21 N15         21.1790    42.5000    40.8140 n3         1 JS0      -0.725600
     22 N18         23.5190    42.1860    42.4100 n3         1 JS0      -0.723600
     23 N25         15.6770    38.7290    39.9000 nb         1 JS0      -0.648000
     24 O01         14.1770    36.0220    38.1460 oh         1 JS0      -0.663000
     25 O11         17.2930    40.7940    40.3100 os         1 JS0      -0.323100
     26 H1          16.1550    36.2790    38.7240 h1         1 JS0       0.041700
     27 H2          15.5300    37.5290    37.6590 h1         1 JS0       0.041700
     28 H3          13.2100    36.4960    40.3200 ha         1 JS0       0.139000
     29 H4          12.7680    37.9070    42.2960 ha         1 JS0       0.119000
     30 H5          13.4010    39.8890    43.6980 ha         1 JS0       0.117000
     31 H6          14.9240    41.8000    44.0630 ha         1 JS0       0.112000
     32 H7          16.7590    42.2630    42.5180 ha         1 JS0       0.121000
     33 H8          18.7770    41.6040    41.5030 h1         1 JS0       0.043700
     34 H9          17.8340    42.7820    40.5830 h1         1 JS0       0.043700
     35 H10         19.6510    40.6850    39.3020 hc         1 JS0       0.057200
     36 H11         18.7830    41.9500    38.4610 hc         1 JS0       0.057200
     37 H12         21.0940    42.6200    38.6980 h1         1 JS0       0.034200
     38 H13         20.0350    43.7050    39.5870 h1         1 JS0       0.034200
     39 H14         21.2220    40.4110    40.7160 h1         1 JS0       0.038200
     40 H15         22.6460    41.1900    40.0220 h1         1 JS0       0.038200
     41 H16         21.8700    40.9660    42.9700 h1         1 JS0       0.042700
     42 H17         23.2020    40.1460    42.1470 h1         1 JS0       0.042700
     43 H18         24.9290    41.1020    43.4790 h1         1 JS0       0.067200
     44 H19         25.0640    42.8400    43.6320 h1         1 JS0       0.067200
     45 H20         22.4470    41.8910    46.8080 ha         1 JS0       0.253000
     46 H21         23.5040    44.2640    42.5170 h1         1 JS0       0.042700
     47 H22         22.0570    43.5140    43.2000 h1         1 JS0       0.042700
     48 H23         22.8360    43.7020    40.2530 h1         1 JS0       0.038200
     49 H24         21.5130    44.5380    41.0730 h1         1 JS0       0.038200
     50 H27         14.4750    35.3900    37.4860 ho         1 JS0       0.450000
@<TRIPOS>BOND
     1     1     2 1   
     2     1    24 1   
     3     1    26 1   
     4     1    27 1   
     5     2     3 ar  
     6     2    23 ar  
     7     3     4 ar  
     8     3    28 1   
     9     4     5 ar  
    10     4    29 1   
    11     5     6 ar  
    12     5    20 ar  
    13     6     7 ar  
    14     6    30 1   
    15     7     8 ar  
    16     7    31 1   
    17     8     9 ar  
    18     8    32 1   
    19     9    20 ar  
    20     9    25 1   
    21    10    11 1   
    22    10    25 1   
    23    10    33 1   
    24    10    34 1   
    25    11    12 1   
    26    11    35 1   
    27    11    36 1   
    28    12    21 1   
    29    12    37 1   
    30    12    38 1   
    31    13    14 1   
    32    13    21 1   
    33    13    39 1   
    34    13    40 1   
    35    14    22 1   
    36    14    41 1   
    37    14    42 1   
    38    15    16 1   
    39    15    22 1   
    40    15    43 1   
    41    15    44 1   
    42    16    17 3   
    43    17    45 1   
    44    18    19 1   
    45    18    22 1   
    46    18    46 1   
    47    18    47 1   
    48    19    21 1   
    49    19    48 1   
    50    19    49 1   
    51    20    23 ar  
    52    24    50 1   
@<TRIPOS>SUBSTRUCTURE
     1 JS0         1 TEMP              0 ****  ****    0 ROOT
