@<TRIPOS>MOLECULE
JS0
   50    52     1     0     0
SMALL
No Charge or Current Charge


@<TRIPOS>ATOM
      1 C02         14.7260    36.7640    38.2640 c3         1 JS0       0.109300
      2 C03         14.5450    37.5750    39.5570 ca         1 JS0       0.346300
      3 C04         13.4620    37.3180    40.4150 ca         1 JS0      -0.125000
      4 C05         13.3260    38.0690    41.5910 ca         1 JS0      -0.084000
      5 C06         14.2860    39.0580    41.8710 ca         1 JS0      -0.048000
      6 C07         14.1670    39.8220    43.0460 ca         1 JS0      -0.140000
      7 C08         15.1140    40.8110    43.3430 ca         1 JS0      -0.061000
      8 C09         16.1850    41.0410    42.4670 ca         1 JS0      -0.223000
      9 C10         16.3190    40.2800    41.2810 ca         1 JS0       0.184100
     10 C12         18.3840    41.4940    40.6430 c3         1 JS0       0.162600
     11 C13         19.3820    41.4360    39.4720 c3         1 JS0      -0.078400
     12 C14         20.4890    42.5100    39.5630 c3         1 JS0       0.169800
     13 C16         22.0660    41.2370    41.0300 c6         1 JS0       0.162800
     14 C17         22.8680    41.2490    42.3710 c6         1 JS0       0.167800
     15 C19         24.6170    42.4520    43.7040 c3         1 JS0       0.256900
     16 C20         23.8740    42.5340    44.9770 c1         1 JS0      -0.189100
     17 C21         23.2400    42.6020    46.0070 c1         1 JS0      -0.234000
     18 C22         22.9800    43.7020    42.2770 c6         1 JS0       0.167800
     19 C23         22.1820    43.6810    40.9340 c6         1 JS0       0.162800
     20 C24         15.3620    39.2700    40.9650 ca         1 JS0       0.252000
     21 N15         21.2780    42.4950    40.8200 n3         1 JS0      -0.725600
     22 N18         23.7630    42.4440    42.4870 n3         1 JS0      -0.723600
     23 N25         15.4740    38.5270    39.8270 nb         1 JS0      -0.648000
     24 O01         13.6490    36.9700    37.3240 oh         1 JS0      -0.663000
     25 O11         17.3750    40.4980    40.4060 os         1 JS0      -0.323100
     26 H1          14.7900    35.7010    38.5340 h1         1 JS0       0.041700
     27 H2          15.6850    37.0330    37.8010 h1         1 JS0       0.041700
     28 H3          12.7390    36.5470    40.1640 ha         1 JS0       0.139000
     29 H4          12.4940    37.8870    42.2670 ha         1 JS0       0.119000
     30 H5          13.3400    39.6510    43.7320 ha         1 JS0       0.117000
     31 H6          15.0170    41.4000    44.2530 ha         1 JS0       0.112000
     32 H7          16.9020    41.8150    42.7270 ha         1 JS0       0.121000
     33 H8          18.9110    41.2960    41.5860 h1         1 JS0       0.043700
     34 H9          17.9370    42.4960    40.6930 h1         1 JS0       0.043700
     35 H10         19.8310    40.4380    39.4210 hc         1 JS0       0.057200
     36 H11         18.8370    41.5820    38.5320 hc         1 JS0       0.057200
     37 H12         21.1600    42.3920    38.7000 h1         1 JS0       0.034200
     38 H13         20.0040    43.4900    39.4540 h1         1 JS0       0.034200
     39 H14         21.4040    40.3600    41.0430 h1         1 JS0       0.038200
     40 H15         22.7750    41.0930    40.2000 h1         1 JS0       0.038200
     41 H16         22.1460    41.2300    43.2010 h1         1 JS0       0.042700
     42 H17         23.4570    40.3230    42.4370 h1         1 JS0       0.042700
     43 H18         25.2340    41.5430    43.7310 h1         1 JS0       0.067200
     44 H19         25.3140    43.3000    43.6630 h1         1 JS0       0.067200
     45 H20         22.6670    42.6620    46.9120 ha         1 JS0       0.253000
     46 H21         23.6510    44.5730    42.2730 h1         1 JS0       0.042700
     47 H22         22.2640    43.8510    43.0990 h1         1 JS0       0.042700
     48 H23         22.9010    43.6890    40.1010 h1         1 JS0       0.038200
     49 H24         21.5990    44.6110    40.8610 h1         1 JS0       0.038200
     50 H27         13.8580    36.4390    36.5210 ho         1 JS0       0.450000
@<TRIPOS>BOND
     1     1     2 1   
     2     1    24 1   
     3     1    26 1   
     4     1    27 1   
     5     2     3 ar  
     6     2    23 ar  
     7     3     4 ar  
     8     3    28 1   
     9     4     5 ar  
    10     4    29 1   
    11     5     6 ar  
    12     5    20 ar  
    13     6     7 ar  
    14     6    30 1   
    15     7     8 ar  
    16     7    31 1   
    17     8     9 ar  
    18     8    32 1   
    19     9    20 ar  
    20     9    25 1   
    21    10    11 1   
    22    10    25 1   
    23    10    33 1   
    24    10    34 1   
    25    11    12 1   
    26    11    35 1   
    27    11    36 1   
    28    12    21 1   
    29    12    37 1   
    30    12    38 1   
    31    13    14 1   
    32    13    21 1   
    33    13    39 1   
    34    13    40 1   
    35    14    22 1   
    36    14    41 1   
    37    14    42 1   
    38    15    16 1   
    39    15    22 1   
    40    15    43 1   
    41    15    44 1   
    42    16    17 3   
    43    17    45 1   
    44    18    19 1   
    45    18    22 1   
    46    18    46 1   
    47    18    47 1   
    48    19    21 1   
    49    19    48 1   
    50    19    49 1   
    51    20    23 ar  
    52    24    50 1   
@<TRIPOS>SUBSTRUCTURE
     1 JS0         1 TEMP              0 ****  ****    0 ROOT
