@<TRIPOS>MOLECULE
JS1
   46    48     1     0     0
SMALL
abcg2


@<TRIPOS>ATOM
      1 C1          -1.4600     3.9730    -1.3030 c3         1 JS1      -0.096100
      2 C2          -0.8710     3.4070    -0.0340 c3         1 JS1       0.166600
      3 O3          -0.5940     2.0190    -0.2660 os         1 JS1      -0.430100
      4 C4          -0.0860     1.3140     0.7290 c          1 JS1       0.664300
      5 O5           0.1790     1.7590     1.8200 o          1 JS1      -0.498000
      6 C6          -0.0070    -0.1240     0.3950 cc         1 JS1      -0.161400
      7 C7          -1.0670    -0.9140     0.0690 cd         1 JS1       0.140900
      8 O8          -0.6800    -2.2010    -0.0910 os         1 JS1      -0.163200
      9 C9           0.6540    -2.2520     0.1370 ca         1 JS1       0.019100
     10 C10          1.1440    -0.9860     0.4490 ca         1 JS1      -0.025800
     11 C11          2.5150    -0.7890     0.6570 ca         1 JS1      -0.064300
     12 C12          3.3230    -1.9220     0.6010 ca         1 JS1       0.122100
     13 C13          2.7950    -3.1930     0.3180 ca         1 JS1      -0.183000
     14 C14          1.4490    -3.3780     0.0660 ca         1 JS1      -0.060000
     15 O15          4.6490    -1.7640     0.8190 oh         1 JS1      -0.536100
     16 C16          3.0710     0.5910     0.8660 c3         1 JS1       0.215100
     17 N17          2.5240     1.5290    -0.0990 n3         1 JS1      -0.721600
     18 C18          2.9000     2.8850     0.2370 c3         1 JS1       0.149600
     19 C19          2.8960     1.2040    -1.4590 c3         1 JS1       0.149600
     20 C20         -2.4850    -0.6350    -0.1220 ca         1 JS1      -0.045800
     21 C21         -3.2090    -1.3220    -1.1000 ca         1 JS1      -0.075000
     22 C22         -4.5520    -1.0440    -1.2990 ca         1 JS1      -0.116500
     23 C23         -5.1910    -0.0830    -0.5260 ca         1 JS1      -0.094000
     24 C24         -4.4810     0.5930     0.4580 ca         1 JS1      -0.116500
     25 C25         -3.1390     0.3150     0.6640 ca         1 JS1      -0.075000
     26 H1          -0.7580     3.9130    -2.1340 hc         1 JS1       0.045367
     27 H2          -2.3770     3.4540    -1.5830 hc         1 JS1       0.045367
     28 H3          -1.7040     5.0240    -1.1470 hc         1 JS1       0.045367
     29 H4           0.0500     3.9260     0.2360 h1         1 JS1       0.043700
     30 H5          -1.5710     3.5080     0.7990 h1         1 JS1       0.043700
     31 H6           3.4620    -4.0480     0.2800 ha         1 JS1       0.116000
     32 H7           1.0510    -4.3540    -0.1780 ha         1 JS1       0.133000
     33 H8           5.1090    -2.5990     0.6880 ho         1 JS1       0.464000
     34 H9           2.8010     0.9460     1.8650 h1         1 JS1       0.056700
     35 H10          4.1690     0.5740     0.8320 h1         1 JS1       0.056700
     36 H12          3.9890     3.0460     0.2230 h1         1 JS1       0.031867
     37 H13          2.4530     3.5820    -0.4740 h1         1 JS1       0.031867
     38 H14          2.5350     3.1400     1.2320 h1         1 JS1       0.031867
     39 H15          2.5490     0.2060    -1.7240 h1         1 JS1       0.031867
     40 H16          2.4260     1.9100    -2.1450 h1         1 JS1       0.031867
     41 H17          3.9830     1.2410    -1.6280 h1         1 JS1       0.031867
     42 H18         -2.7210    -2.0640    -1.7200 ha         1 JS1       0.123500
     43 H19         -5.1010    -1.5770    -2.0650 ha         1 JS1       0.116500
     44 H20         -6.2390     0.1340    -0.6850 ha         1 JS1       0.114000
     45 H21         -4.9760     1.3280     1.0770 ha         1 JS1       0.116500
     46 H22         -2.6130     0.8180     1.4660 ha         1 JS1       0.123500
@<TRIPOS>BOND
     1     1     2 1   
     2     1    26 1   
     3     1    27 1   
     4     1    28 1   
     5     2     3 1   
     6     2    29 1   
     7     2    30 1   
     8     3     4 1   
     9     4     5 2   
    10     4     6 1   
    11     6     7 2   
    12     6    10 1   
    13     7     8 1   
    14     7    20 1   
    15     8     9 1   
    16     9    10 ar  
    17     9    14 ar  
    18    10    11 ar  
    19    11    12 ar  
    20    11    16 1   
    21    12    13 ar  
    22    12    15 1   
    23    13    14 ar  
    24    13    31 1   
    25    14    32 1   
    26    15    33 1   
    27    16    17 1   
    28    16    34 1   
    29    16    35 1   
    30    17    18 1   
    31    17    19 1   
    32    18    36 1   
    33    18    37 1   
    34    18    38 1   
    35    19    39 1   
    36    19    40 1   
    37    19    41 1   
    38    20    21 ar  
    39    20    25 ar  
    40    21    22 ar  
    41    21    42 1   
    42    22    23 ar  
    43    22    43 1   
    44    23    24 ar  
    45    23    44 1   
    46    24    25 ar  
    47    24    45 1   
    48    25    46 1   
@<TRIPOS>SUBSTRUCTURE
     1 JS1         1 TEMP              0 ****  ****    0 ROOT
