@<TRIPOS>MOLECULE
JS1
   46    48     1     0     0
SMALL
No Charge or Current Charge


@<TRIPOS>ATOM
      1 C1          -2.4460     4.0280    -0.8060 c3         1 JS1      -0.096100
      2 C2          -1.2920     3.5630     0.0950 c3         1 JS1       0.166600
      3 O3          -1.0850     2.1660    -0.1650 os         1 JS1      -0.430100
      4 C4          -0.1190     1.5020     0.5480 c          1 JS1       0.664300
      5 O5           0.5590     2.0610     1.3980 o          1 JS1      -0.498000
      6 C6          -0.0140     0.0610     0.2020 cc         1 JS1      -0.161400
      7 C7          -1.0550    -0.7120    -0.3230 cd         1 JS1       0.140900
      8 O8          -0.6600    -2.0180    -0.4230 os         1 JS1      -0.163200
      9 C9           0.6180    -2.1280     0.0110 ca         1 JS1       0.019100
     10 C10          1.1070    -0.8870     0.3730 ca         1 JS1      -0.025800
     11 C11          2.4850    -0.7420     0.7010 ca         1 JS1      -0.064300
     12 C12          3.2720    -1.9310     0.7550 ca         1 JS1       0.122100
     13 C13          2.7170    -3.1920     0.4420 ca         1 JS1      -0.183000
     14 C14          1.3760    -3.2980     0.0380 ca         1 JS1      -0.060000
     15 O15          4.5960    -1.8850     1.0890 oh         1 JS1      -0.536100
     16 C16          3.1560     0.6230     0.9020 c3         1 JS1       0.215100
     17 N17          3.1090     1.4950    -0.3050 n3         1 JS1      -0.721600
     18 C18          3.5920     2.8650    -0.0280 c3         1 JS1       0.149600
     19 C19          3.7720     0.8930    -1.4850 c3         1 JS1       0.149600
     20 C20         -2.5220    -0.5160    -0.3710 ca         1 JS1      -0.045800
     21 C21         -3.2840    -1.2660    -1.2940 ca         1 JS1      -0.075000
     22 C22         -4.6810    -1.1220    -1.3610 ca         1 JS1      -0.116500
     23 C23         -5.3400    -0.2380    -0.4920 ca         1 JS1      -0.094000
     24 C24         -4.6000     0.4900     0.4520 ca         1 JS1      -0.116500
     25 C25         -3.2030     0.3470     0.5190 ca         1 JS1      -0.075000
     26 H1          -2.1930     3.8830    -1.8630 hc         1 JS1       0.045367
     27 H2          -3.3600     3.4640    -0.5840 hc         1 JS1       0.045367
     28 H3          -2.6500     5.0920    -0.6430 hc         1 JS1       0.045367
     29 H4          -0.3880     4.1430    -0.1340 h1         1 JS1       0.043700
     30 H5          -1.5600     3.7300     1.1470 h1         1 JS1       0.043700
     31 H6           3.3310    -4.0890     0.4760 ha         1 JS1       0.116000
     32 H7           0.9450    -4.2530    -0.2530 ha         1 JS1       0.133000
     33 H8           4.9580    -2.7960     1.0620 ho         1 JS1       0.464000
     34 H9           2.6920     1.1120     1.7660 h1         1 JS1       0.056700
     35 H10          4.2050     0.4880     1.1960 h1         1 JS1       0.056700
     36 H12          4.6560     2.8590     0.2420 h1         1 JS1       0.031867
     37 H13          3.4640     3.5070    -0.9100 h1         1 JS1       0.031867
     38 H14          3.0300     3.3160     0.8000 h1         1 JS1       0.031867
     39 H15          3.3150    -0.0710    -1.7460 h1         1 JS1       0.031867
     40 H16          3.6810     1.5510    -2.3590 h1         1 JS1       0.031867
     41 H17          4.8410     0.7250    -1.2910 h1         1 JS1       0.031867
     42 H18         -2.7890    -1.9530    -1.9770 ha         1 JS1       0.123500
     43 H19         -5.2520    -1.6970    -2.0870 ha         1 JS1       0.116500
     44 H20         -6.4210    -0.1280    -0.5420 ha         1 JS1       0.114000
     45 H21         -5.1100     1.1600     1.1420 ha         1 JS1       0.116500
     46 H22         -2.6620     0.8870     1.2900 ha         1 JS1       0.123500
@<TRIPOS>BOND
     1     1     2 1   
     2     1    26 1   
     3     1    27 1   
     4     1    28 1   
     5     2     3 1   
     6     2    29 1   
     7     2    30 1   
     8     3     4 1   
     9     4     5 2   
    10     4     6 1   
    11     6     7 2   
    12     6    10 1   
    13     7     8 1   
    14     7    20 1   
    15     8     9 1   
    16     9    10 ar  
    17     9    14 ar  
    18    10    11 ar  
    19    11    12 ar  
    20    11    16 1   
    21    12    13 ar  
    22    12    15 1   
    23    13    14 ar  
    24    13    31 1   
    25    14    32 1   
    26    15    33 1   
    27    16    17 1   
    28    16    34 1   
    29    16    35 1   
    30    17    18 1   
    31    17    19 1   
    32    18    36 1   
    33    18    37 1   
    34    18    38 1   
    35    19    39 1   
    36    19    40 1   
    37    19    41 1   
    38    20    21 ar  
    39    20    25 ar  
    40    21    22 ar  
    41    21    42 1   
    42    22    23 ar  
    43    22    43 1   
    44    23    24 ar  
    45    23    44 1   
    46    24    25 ar  
    47    24    45 1   
    48    25    46 1   
@<TRIPOS>SUBSTRUCTURE
     1 JS1         1 TEMP              0 ****  ****    0 ROOT
