@<TRIPOS>MOLECULE
JS2
   54    56     1     0     0
SMALL
abcg2


@<TRIPOS>ATOM
      1 C2A          6.2950    -4.7620     1.6910 cc         1 JS2       0.466800
      2 C4A          4.7220    -3.2320     1.8410 cd         1 JS2       0.075400
      3 C6           4.0910    -5.4720     2.5020 c          1 JS2       0.501500
      4 O3           0.5500     3.6570    -1.3520 oh         1 JS2      -0.702000
      5 C3           0.9460     3.0570    -0.1470 c5         1 JS2       0.105300
      6 C2           0.5940     1.5670    -0.1840 c5         1 JS2       0.100300
      7 O2          -0.5900     1.2240    -0.8380 oh         1 JS2      -0.706000
      8 C1           1.8030     0.9500    -0.8930 c5         1 JS2       0.400300
      9 O1           1.7200     0.9970    -2.2860 oh         1 JS2      -0.721000
     10 O4           2.8830     1.7320    -0.5020 os         1 JS2      -0.411000
     11 C4           2.4670     2.9900     0.0370 c5         1 JS2       0.102300
     12 C5           2.8660     3.0850     1.4990 c3         1 JS2       0.233600
     13 O5           4.2490     2.8840     1.6760 os         1 JS2      -0.581400
     14 PBG          5.2210     4.1780     2.0160 p5         1 JS2       1.462800
     15 OAI          4.7110     4.8660     3.2430 o          1 JS2      -0.850500
     16 OAD          5.4690     4.9560     0.7610 o          1 JS2      -0.850500
     17 OAV          6.5720     3.3040     2.3080 os         1 JS2      -0.706800
     18 PBF          7.3130     2.8540     3.7140 p5         1 JS2       1.475800
     19 OAH          7.6710     4.0790     4.4930 o          1 JS2      -0.848500
     20 OAC          8.3500     1.8540     3.3090 o          1 JS2      -0.848500
     21 OAS          6.0920     2.1150     4.5220 os         1 JS2      -0.611400
     22 CAM          5.9960     0.7170     4.7180 c3         1 JS2       0.251600
     23 CAK          5.0930     0.0210     3.7110 c3         1 JS2      -0.097400
     24 CAL          5.7180    -0.1990     2.3390 c3         1 JS2      -0.092400
     25 N9           4.1180    -2.0120     1.7570 na         1 JS2      -0.151500
     26 N3           5.9990    -3.5150     1.5160 nd         1 JS2      -0.562100
     27 N1           5.4290    -5.6940     2.1510 ns         1 JS2      -0.435400
     28 O6           3.3820    -6.3810     2.9060 o          1 JS2      -0.560000
     29 C5A          3.7590    -4.0980     2.3120 cc         1 JS2       0.142500
     30 N7           2.5810    -3.4380     2.5330 nc         1 JS2      -0.700000
     31 C8           2.8320    -2.1990     2.1940 cd         1 JS2       0.651400
     32 NAA          1.9100    -1.1930     2.1830 nv         1 JS2      -1.037900
     33 H1A          7.2910    -5.1180     1.4660 h5         1 JS2       0.040800
     34 HO3          0.7580     4.5950    -1.2990 ho         1 JS2       0.501000
     35 H3           0.4730     3.5550     0.7120 h1         1 JS2       0.034700
     36 H2           0.6030     1.2020     0.8520 h1         1 JS2       0.041700
     37 HO2         -1.3350     1.4470    -0.2710 ho         1 JS2       0.495000
     38 H1           1.9780    -0.0810    -0.5550 h2         1 JS2       0.053700
     39 HO1          1.0220     0.3970    -2.5710 ho         1 JS2       0.506000
     40 H4           2.9650     3.7920    -0.5180 h1         1 JS2       0.103700
     41 H51          2.5370     4.0560     1.8870 h1         1 JS2       0.008200
     42 H52          2.3370     2.3210     2.0810 h1         1 JS2       0.008200
     43 H13          5.5740     0.5770     5.7160 h1         1 JS2       0.010200
     44 H14          6.9830     0.2460     4.7180 h1         1 JS2       0.010200
     45 H15          4.1620     0.5910     3.6220 hc         1 JS2       0.018700
     46 H16          4.8220    -0.9460     4.1460 hc         1 JS2       0.018700
     47 H17          6.5900    -0.8500     2.4340 hc         1 JS2       0.091200
     48 H18          6.0740     0.7430     1.9240 hc         1 JS2       0.091200
     49 H19          5.2750    -0.9920     0.3820 h1         1 JS2       0.078200
     50 H20          3.9700    -0.0630     1.0820 h1         1 JS2       0.078200
     51 H22          1.0540    -1.4370     2.6560 hn         1 JS2       0.470000
     52 H23          2.2300    -0.2730     2.4460 hn         1 JS2       0.470000
     53 H21          5.7720    -6.6410     2.2500 hn         1 JS2       0.310500
     54 CAN          4.7530    -0.7830     1.3170 c3         1 JS2       0.064600
@<TRIPOS>BOND
     1     1    26 2   
     2     1    27 1   
     3     1    33 1   
     4     2    25 1   
     5     2    26 1   
     6     2    29 2   
     7     3    27 1   
     8     3    28 2   
     9     3    29 1   
    10     4     5 1   
    11     4    34 1   
    12     5     6 1   
    13     5    11 1   
    14     5    35 1   
    15     6     7 1   
    16     6     8 1   
    17     6    36 1   
    18     7    37 1   
    19     8     9 1   
    20     8    10 1   
    21     8    38 1   
    22     9    39 1   
    23    10    11 1   
    24    11    12 1   
    25    11    40 1   
    26    12    13 1   
    27    12    41 1   
    28    12    42 1   
    29    13    14 1   
    30    14    15 1   
    31    14    16 1   
    32    14    17 1   
    33    17    18 1   
    34    18    19 1   
    35    18    20 1   
    36    18    21 1   
    37    21    22 1   
    38    22    23 1   
    39    22    43 1   
    40    22    44 1   
    41    23    24 1   
    42    23    45 1   
    43    23    46 1   
    44    24    47 1   
    45    24    48 1   
    46    24    54 1   
    47    25    31 1   
    48    25    54 1   
    49    27    53 1   
    50    29    30 1   
    51    30    31 2   
    52    31    32 1   
    53    32    51 1   
    54    32    52 1   
    55    49    54 1   
    56    50    54 1   
@<TRIPOS>SUBSTRUCTURE
     1 JS2         1 TEMP              0 ****  ****    0 ROOT
