@<TRIPOS>MOLECULE
JS2
   54    56     1     0     0
SMALL
No Charge or Current Charge


@<TRIPOS>ATOM
      1 C2A          5.8170    -5.1350     1.7700 cc         1 JS2       0.466800
      2 C4A          4.5650    -3.2890     2.2870 cd         1 JS2       0.075400
      3 C6           4.1190    -5.4200     3.4840 c          1 JS2       0.501500
      4 O3           1.9870     4.0830    -1.4830 oh         1 JS2      -0.702000
      5 C3           1.3270     3.1860    -0.5650 c5         1 JS2       0.105300
      6 C2           0.7520     1.9410    -1.3050 c5         1 JS2       0.100300
      7 O2           0.0130     2.3030    -2.4860 oh         1 JS2      -0.706000
      8 C1           2.0920     1.1590    -1.5530 c5         1 JS2       0.400300
      9 O1           2.9250     1.7990    -2.5100 oh         1 JS2      -0.721000
     10 O4           2.7400     1.2470    -0.2760 os         1 JS2      -0.411000
     11 C4           2.3350     2.4740     0.4090 c5         1 JS2       0.102300
     12 C5           1.6790     2.0970     1.7790 c3         1 JS2       0.233600
     13 O5           2.6420     1.8920     2.8330 os         1 JS2      -0.581400
     14 PBG          3.6420     3.0660     3.3190 p5         1 JS2       1.462800
     15 OAI          3.8760     2.9120     4.7850 o          1 JS2      -0.850500
     16 OAD          3.0730     4.3990     2.9630 o          1 JS2      -0.850500
     17 OAV          4.8540     2.6450     2.4080 os         1 JS2      -0.706800
     18 PBF          6.2500     3.2630     2.8000 p5         1 JS2       1.475800
     19 OAH          6.1770     4.6750     3.2810 o          1 JS2      -0.848500
     20 OAC          7.1940     3.1760     1.6460 o          1 JS2      -0.848500
     21 OAS          6.7190     2.2660     3.9810 os         1 JS2      -0.611400
     22 CAM          7.2250     0.9440     3.7440 c3         1 JS2       0.251600
     23 CAK          6.0730    -0.0260     3.3790 c3         1 JS2      -0.097400
     24 CAL          5.9330    -0.3290     1.8640 c3         1 JS2      -0.092400
     25 N9           4.0780    -2.0010     2.2850 na         1 JS2      -0.151500
     26 N3           5.5890    -3.8420     1.5160 nd         1 JS2      -0.562100
     27 N1           5.1290    -5.8880     2.6970 ns         1 JS2      -0.435400
     28 O6           3.5430    -6.1400     4.2900 o          1 JS2      -0.560000
     29 C5A          3.8390    -3.9830     3.2270 cc         1 JS2       0.142500
     30 N7           2.8930    -3.1690     3.8220 nc         1 JS2      -0.700000
     31 C8           3.0700    -2.0110     3.2380 cd         1 JS2       0.651400
     32 NAA          2.2940    -0.9660     3.5540 nv         1 JS2      -1.037900
     33 H1A          6.5800    -5.7050     1.2550 h5         1 JS2       0.040800
     34 HO3          2.0500     4.9640    -1.0390 ho         1 JS2       0.501000
     35 H3           0.5380     3.7210    -0.0160 h1         1 JS2       0.034700
     36 H2           0.1070     1.3570    -0.6340 h1         1 JS2       0.041700
     37 HO2          0.4450     3.1290    -2.8110 ho         1 JS2       0.495000
     38 H1           1.9180     0.1110    -1.8290 h2         1 JS2       0.053700
     39 HO1          2.8010     2.7530    -2.2640 ho         1 JS2       0.506000
     40 H4           3.2130     3.1100     0.5650 h1         1 JS2       0.103700
     41 H51          0.9900     2.9000     2.0720 h1         1 JS2       0.008200
     42 H52          1.0710     1.1930     1.6470 h1         1 JS2       0.008200
     43 H13          7.7040     0.5790     4.6610 h1         1 JS2       0.010200
     44 H14          7.9910     0.9400     2.9570 h1         1 JS2       0.010200
     45 H15          5.1280     0.3550     3.7820 hc         1 JS2       0.018700
     46 H16          6.2510    -0.9760     3.8960 hc         1 JS2       0.018700
     47 H17          6.7030    -1.0540     1.5720 hc         1 JS2       0.091200
     48 H18          6.1250     0.5750     1.2750 hc         1 JS2       0.091200
     49 H19          4.5600    -1.1820     0.4130 h1         1 JS2       0.078200
     50 H20          3.8160    -0.0570     1.5520 h1         1 JS2       0.078200
     51 H22          1.7580    -1.0490     4.4080 hn         1 JS2       0.470000
     52 H23          2.5890    -0.0300     3.2820 hn         1 JS2       0.470000
     53 H21          5.3770    -6.8600     2.8150 hn         1 JS2       0.310500
     54 CAN          4.5430    -0.8710     1.4650 c3         1 JS2       0.064600
@<TRIPOS>BOND
     1     1    26 2   
     2     1    27 1   
     3     1    33 1   
     4     2    25 1   
     5     2    26 1   
     6     2    29 2   
     7     3    27 1   
     8     3    28 2   
     9     3    29 1   
    10     4     5 1   
    11     4    34 1   
    12     5     6 1   
    13     5    11 1   
    14     5    35 1   
    15     6     7 1   
    16     6     8 1   
    17     6    36 1   
    18     7    37 1   
    19     8     9 1   
    20     8    10 1   
    21     8    38 1   
    22     9    39 1   
    23    10    11 1   
    24    11    12 1   
    25    11    40 1   
    26    12    13 1   
    27    12    41 1   
    28    12    42 1   
    29    13    14 1   
    30    14    15 1   
    31    14    16 1   
    32    14    17 1   
    33    17    18 1   
    34    18    19 1   
    35    18    20 1   
    36    18    21 1   
    37    21    22 1   
    38    22    23 1   
    39    22    43 1   
    40    22    44 1   
    41    23    24 1   
    42    23    45 1   
    43    23    46 1   
    44    24    47 1   
    45    24    48 1   
    46    24    54 1   
    47    25    31 1   
    48    25    54 1   
    49    27    53 1   
    50    29    30 1   
    51    30    31 2   
    52    31    32 1   
    53    32    51 1   
    54    32    52 1   
    55    49    54 1   
    56    50    54 1   
@<TRIPOS>SUBSTRUCTURE
     1 JS2         1 TEMP              0 ****  ****    0 ROOT
