@<TRIPOS>MOLECULE
JS3
   31    33     1     0     0
SMALL
abcg2


@<TRIPOS>ATOM
      1 C1          -0.6410    -1.0140    -0.0700 c          1 JS3       0.654700
      2 O8          -0.3450    -2.1880     0.0440 o          1 JS3      -0.560100
      3 N9           0.2680    -0.0090    -0.2000 ns         1 JS3      -0.151000
      4 C10          1.6610    -0.1670    -0.2580 ca         1 JS3      -0.023000
      5 C11          2.2560    -1.2550    -0.9430 ca         1 JS3      -0.106000
      6 C12          3.6160    -1.3540    -1.0120 ca         1 JS3      -0.079000
      7 C13          4.4600    -0.3840    -0.4250 ca         1 JS3      -0.051000
      8 C14          3.8620     0.7170     0.2410 ca         1 JS3      -0.013000
      9 C15          2.4550     0.7960     0.3140 ca         1 JS3      -0.154000
     10 C16          4.6970     1.7000     0.8220 ca         1 JS3      -0.106000
     11 C17          6.0590     1.5910     0.7460 ca         1 JS3      -0.100000
     12 C18          6.6530     0.4950     0.0840 ca         1 JS3      -0.112000
     13 C19          5.8690    -0.4700    -0.4880 ca         1 JS3      -0.090000
     14 C20         -2.0510    -0.5820    -0.0860 cc         1 JS3      -0.336600
     15 S21         -2.5790     0.8850    -0.8340 ss         1 JS3       0.029600
     16 C22         -4.1790     0.4750    -0.3930 cc         1 JS3       0.513400
     17 N23         -4.3270    -0.6350     0.2380 nd         1 JS3      -0.640000
     18 C24         -3.1280    -1.2630     0.4210 cd         1 JS3       0.384300
     19 CL1         -5.4740     1.5010    -0.7970 cl         1 JS3      -0.098000
     20 C26         -3.1110    -2.5740     1.1300 c3         1 JS3      -0.130400
     21 H1          -0.0460     0.9320    -0.0120 hn         1 JS3       0.153000
     22 H2           1.6430    -2.0010    -1.4250 ha         1 JS3       0.137000
     23 H3           4.0630    -2.1900    -1.5360 ha         1 JS3       0.118000
     24 H4           2.0030     1.6350     0.8310 ha         1 JS3       0.112000
     25 H5           4.2420     2.5440     1.3280 ha         1 JS3       0.112000
     26 H6           6.6870     2.3500     1.1940 ha         1 JS3       0.113000
     27 H7           7.7310     0.4220     0.0300 ha         1 JS3       0.114000
     28 H8           6.3210    -1.3130    -0.9970 ha         1 JS3       0.114000
     29 H9          -3.0290    -3.3980     0.4200 hc         1 JS3       0.065367
     30 H10         -2.2720    -2.6540     1.8180 hc         1 JS3       0.065367
     31 H11         -4.0360    -2.7000     1.6870 hc         1 JS3       0.065367
@<TRIPOS>BOND
     1     1     2 2   
     2     1     3 1   
     3     1    14 1   
     4     3     4 1   
     5     3    21 1   
     6     4     5 ar  
     7     4     9 ar  
     8     5     6 ar  
     9     5    22 1   
    10     6     7 ar  
    11     6    23 1   
    12     7     8 ar  
    13     7    13 ar  
    14     8     9 ar  
    15     8    10 ar  
    16     9    24 1   
    17    10    11 ar  
    18    10    25 1   
    19    11    12 ar  
    20    11    26 1   
    21    12    13 ar  
    22    12    27 1   
    23    13    28 1   
    24    14    15 1   
    25    14    18 2   
    26    15    16 1   
    27    16    17 2   
    28    16    19 1   
    29    17    18 1   
    30    18    20 1   
    31    20    29 1   
    32    20    30 1   
    33    20    31 1   
@<TRIPOS>SUBSTRUCTURE
     1 JS3         1 TEMP              0 ****  ****    0 ROOT
