@<TRIPOS>MOLECULE
JS3
   31    33     1     0     0
SMALL
No Charge or Current Charge


@<TRIPOS>ATOM
      1 C1          -0.7100    -1.1860     0.1160 c          1 JS3       0.654700
      2 O8          -0.5310    -2.3920     0.0230 o          1 JS3      -0.560100
      3 N9           0.3160    -0.2500     0.1210 ns         1 JS3      -0.151000
      4 C10          1.7310    -0.3710     0.0300 ca         1 JS3      -0.023000
      5 C11          2.4070    -1.6060    -0.0940 ca         1 JS3      -0.106000
      6 C12          3.8100    -1.6440    -0.1780 ca         1 JS3      -0.079000
      7 C13          4.5550    -0.4520    -0.1390 ca         1 JS3      -0.051000
      8 C14          3.8880     0.7840    -0.0160 ca         1 JS3      -0.013000
      9 C15          2.4840     0.8180     0.0680 ca         1 JS3      -0.154000
     10 C16          4.6310     1.9800     0.0240 ca         1 JS3      -0.106000
     11 C17          6.0340     1.9420    -0.0610 ca         1 JS3      -0.100000
     12 C18          6.6980     0.7090    -0.1840 ca         1 JS3      -0.112000
     13 C19          5.9610    -0.4870    -0.2230 ca         1 JS3      -0.090000
     14 C20         -2.0470    -0.5650     0.2360 cc         1 JS3      -0.336600
     15 S21         -2.3030     1.1590     0.3690 ss         1 JS3       0.029600
     16 C22         -4.0070     0.8190     0.4450 cc         1 JS3       0.513400
     17 N23         -4.3680    -0.4540     0.3790 nd         1 JS3      -0.640000
     18 C24         -3.2430    -1.2570     0.2590 cd         1 JS3       0.384300
     19 Cl1         -5.1530     2.1140     0.6000 cl         1 JS3      -0.098000
     20 C26         -3.4520    -2.7440     0.1690 c3         1 JS3      -0.130400
     21 H1          -0.0040     0.7050     0.2050 hn         1 JS3       0.153000
     22 H2           1.8690    -2.5480    -0.1270 ha         1 JS3       0.137000
     23 H3           4.3160    -2.6020    -0.2730 ha         1 JS3       0.118000
     24 H4           1.9750     1.7740     0.1640 ha         1 JS3       0.112000
     25 H5           4.1240     2.9370     0.1190 ha         1 JS3       0.112000
     26 H6           6.6050     2.8670    -0.0300 ha         1 JS3       0.113000
     27 H7           7.7830     0.6810    -0.2490 ha         1 JS3       0.114000
     28 H8           6.4820    -1.4370    -0.3190 ha         1 JS3       0.114000
     29 H9          -3.0550    -3.1380    -0.7720 hc         1 JS3       0.065367
     30 H10         -2.9520    -3.2590     0.9960 hc         1 JS3       0.065367
     31 H11         -4.5160    -3.0040     0.2130 hc         1 JS3       0.065367
@<TRIPOS>BOND
     1     1     2 2   
     2     1     3 1   
     3     1    14 1   
     4     3     4 1   
     5     3    21 1   
     6     4     5 ar  
     7     4     9 ar  
     8     5     6 ar  
     9     5    22 1   
    10     6     7 ar  
    11     6    23 1   
    12     7     8 ar  
    13     7    13 ar  
    14     8     9 ar  
    15     8    10 ar  
    16     9    24 1   
    17    10    11 ar  
    18    10    25 1   
    19    11    12 ar  
    20    11    26 1   
    21    12    13 ar  
    22    12    27 1   
    23    13    28 1   
    24    14    15 1   
    25    14    18 2   
    26    15    16 1   
    27    16    17 2   
    28    16    19 1   
    29    17    18 1   
    30    18    20 1   
    31    20    29 1   
    32    20    30 1   
    33    20    31 1   
@<TRIPOS>SUBSTRUCTURE
     1 JS3         1 TEMP              0 ****  ****    0 ROOT
