@<TRIPOS>MOLECULE
JS4
  106   109     1     0     0
SMALL
No Charge or Current Charge


@<TRIPOS>ATOM
      1 C11          3.8240     1.5160    -0.4990 c6         1 JS4       0.398300
      2 O11          4.1850     0.2600    -1.1260 os         1 JS4      -0.470000
      3 C21          4.3430     2.7550    -1.3230 c6         1 JS4       0.153500
      4 N21          3.8140     2.8370    -2.7250 n8         1 JS4      -0.983200
      5 C31          5.9040     2.8060    -1.2800 c6         1 JS4       0.172300
      6 O31          6.4160     3.9750    -1.9530 oh         1 JS4      -0.666000
      7 C41          6.4070     2.7970     0.1940 c6         1 JS4       0.101300
      8 O41          7.8530     2.8130     0.2160 oh         1 JS4      -0.722000
      9 C51          5.8170     1.5530     0.9330 c6         1 JS4       0.134300
     10 O51          4.3660     1.5640     0.8430 os         1 JS4      -0.465000
     11 C61          6.2070     1.5110     2.4490 c3         1 JS4       0.170600
     12 O61          5.6170     0.4070     3.1610 oh         1 JS4      -0.703000
     13 C12          2.6490    -3.7530    -0.8090 c6         1 JS4       0.114500
     14 N12          2.1570    -5.0910    -0.3790 n8         1 JS4      -1.015200
     15 C22          4.1380    -3.5340    -0.5090 c6         1 JS4      -0.110400
     16 C32          4.5610    -2.1550    -1.0700 c6         1 JS4       0.171500
     17 N32          6.0130    -1.9570    -0.8490 n8         1 JS4      -0.997200
     18 C42          3.6980    -0.9660    -0.4990 c6         1 JS4       0.177300
     19 C52          2.1510    -1.2260    -0.7140 c6         1 JS4       0.157300
     20 O52          1.3530    -0.1600    -0.1150 os         1 JS4      -0.455000
     21 C62          1.7940    -2.6510    -0.1420 c6         1 JS4       0.153300
     22 O62          0.4560    -3.1150    -0.3230 oh         1 JS4      -0.722000
     23 C13         -0.0470    -0.0660    -0.4750 c5         1 JS4       0.355300
     24 C23         -0.7960     0.6620     0.7070 c5         1 JS4       0.120300
     25 O23         -1.6320    -0.2890     1.4210 os         1 JS4      -0.439000
     26 C33         -1.7040     1.6810    -0.0640 c5         1 JS4       0.158300
     27 C43         -0.7720     2.0660    -1.2430 c5         1 JS4       0.168300
     28 O43         -0.1560     0.8070    -1.6290 os         1 JS4      -0.471000
     29 C53          0.3040     3.1290    -0.8610 c3         1 JS4       0.147600
     30 O33         -2.8850     1.0290    -0.6180 os         1 JS4      -0.440000
     31 O53          1.0290     3.5970    -2.0160 oh         1 JS4      -0.710000
     32 C63         -0.9780    -1.2670     2.2530 c3         1 JS4       0.165600
     33 C73         -1.9710    -2.4270     2.5340 c3         1 JS4       0.169800
     34 N73         -2.4390    -3.0820     1.2850 n7         1 JS4      -0.876400
     35 C83         -3.2950    -4.2650     1.4700 c3         1 JS4       0.166800
     36 C15         -3.7850    -4.7950     0.1080 c3         1 JS4      -0.082400
     37 C25         -4.7340    -6.0010     0.2550 c3         1 JS4       0.150800
     38 N25         -5.2050    -6.4930    -1.0530 n8         1 JS4      -0.994200
     39 C14         -4.0430     0.9350     0.2400 c6         1 JS4       0.407300
     40 C24         -4.9930    -0.2160    -0.2640 c6         1 JS4       0.119500
     41 N24         -5.3320    -0.0920    -1.7370 n8         1 JS4      -1.010200
     42 C34         -6.2930    -0.2240     0.6080 c6         1 JS4       0.128300
     43 O34         -5.9970    -0.6000     1.9650 oh         1 JS4      -0.659000
     44 C44         -6.9530     1.1910     0.5400 c6         1 JS4       0.120300
     45 O44         -7.3250     1.4330    -0.8290 oh         1 JS4      -0.738000
     46 C54         -5.9110     2.2550     1.0360 c6         1 JS4       0.162300
     47 O54         -4.7230     2.2100     0.2020 os         1 JS4      -0.456000
     48 C64         -6.4890     3.7120     1.0100 c3         1 JS4       0.156800
     49 N64         -5.6180     4.7610     1.6130 n8         1 JS4      -0.984200
     50 H11          2.7340     1.6040    -0.4490 h2         1 JS4       0.093700
     51 H21          3.9710     3.6580    -0.8170 h1         1 JS4       0.024700
     52 H211         2.8140     3.0860    -2.6600 hn         1 JS4       0.413000
     53 H212         4.2430     3.6600    -3.1630 hn         1 JS4       0.413000
     54 H31          6.2860     1.9000    -1.7740 h1         1 JS4       0.067700
     55 H5           7.3430     4.0530    -1.6320 ho         1 JS4       0.456000
     56 H41          6.0190     3.7000     0.6900 h1         1 JS4       0.044700
     57 H4           8.1360     3.2000     1.0780 ho         1 JS4       0.506000
     58 H51          6.2010     0.6360     0.4640 h1         1 JS4       0.091700
     59 H611         7.3010     1.4540     2.5250 h1         1 JS4       0.020200
     60 H612         5.8970     2.4590     2.9090 h1         1 JS4       0.020200
     61 H61          5.8590     0.5150     4.1090 ho         1 JS4       0.499000
     62 H121         2.6060    -5.8130    -0.9590 hn         1 JS4       0.404000
     63 H122         2.5270    -5.2970     0.5600 hn         1 JS4       0.404000
     64 H221         4.3260    -3.5800     0.5730 hc         1 JS4       0.052200
     65 H222         4.7360    -4.3290    -0.9750 hc         1 JS4       0.052200
     66 H32          4.4150    -2.1720    -2.1610 h1         1 JS4       0.031700
     67 H321         6.5320    -2.5920    -1.4660 hn         1 JS4       0.402500
     68 H322         6.2500    -1.0250    -1.2090 hn         1 JS4       0.402500
     69 H42          3.8890    -0.9110     0.5830 h1         1 JS4       0.079700
     70 H52          1.9600    -1.2270    -1.7970 h1         1 JS4       0.070700
     71 H62          2.0250    -2.6460     0.9340 h1         1 JS4       0.039700
     72 H3           0.6530    -4.0910    -0.4100 ho         1 JS4       0.527000
     73 H13         -0.5050    -1.0360    -0.6900 h2         1 JS4       0.081700
     74 H23         -0.1080     1.1620     1.4020 h1         1 JS4       0.051700
     75 H33         -1.9990     2.5490     0.5410 h1         1 JS4       0.068700
     76 H43         -1.3600     2.4550    -2.0860 h1         1 JS4       0.101700
     77 H531        -0.2020     3.9750    -0.3780 h1         1 JS4       0.025200
     78 H532         0.9940     2.7050    -0.1210 h1         1 JS4       0.025200
     79 H53          0.4070     4.1460    -2.5490 ho         1 JS4       0.499000
     80 H631        -0.6640    -0.8140     3.2020 h1         1 JS4       0.038700
     81 H632        -0.0840    -1.6720     1.7670 h1         1 JS4       0.038700
     82 H731        -2.8250    -2.0330     3.1010 h1         1 JS4       0.036200
     83 H732        -1.4620    -3.1590     3.1760 h1         1 JS4       0.036200
     84 H73         -1.6100    -3.3440     0.7340 hn         1 JS4       0.418000
     85 H831        -4.1690    -4.0050     2.0830 h1         1 JS4       0.028200
     86 H832        -2.7450    -5.0600     1.9910 h1         1 JS4       0.028200
     87 H151        -2.9190    -5.0830    -0.5010 hc         1 JS4       0.049700
     88 H152        -4.3060    -3.9900    -0.4250 hc         1 JS4       0.049700
     89 H11A        -5.6090    -5.7100     0.8530 h1         1 JS4       0.024700
     90 H12A        -4.2160    -6.8200     0.7730 h1         1 JS4       0.024700
     91 H251        -4.4030    -6.8570    -1.5820 hn         1 JS4       0.392000
     92 H252        -5.7930    -7.3220    -0.9070 hn         1 JS4       0.392000
     93 H14         -3.7410     0.7180     1.2750 h2         1 JS4       0.048700
     94 H24         -4.4540    -1.1650    -0.1140 h1         1 JS4       0.100700
     95 H241        -4.4850     0.2640    -2.2060 hn         1 JS4       0.414500
     96 H242        -5.4210    -1.0370    -2.1360 hn         1 JS4       0.414500
     97 H34         -6.9910    -0.9590     0.1780 h1         1 JS4       0.052700
     98 H2          -6.8400    -0.8970     2.3750 ho         1 JS4       0.441000
     99 H44         -7.8410     1.2170     1.1910 h1         1 JS4       0.051700
    100 H1          -6.5960     0.9500    -1.3350 ho         1 JS4       0.556000
    101 H54         -5.6240     2.0260     2.0730 h1         1 JS4       0.031700
    102 H641        -6.7000     3.9910    -0.0320 h1         1 JS4       0.045700
    103 H642        -7.4450     3.7100     1.5530 h1         1 JS4       0.045700
    104 H21A        -6.1230     5.6560     1.6180 hn         1 JS4       0.386000
    105 H22         -5.4790     4.5530     2.6090 hn         1 JS4       0.386000
    106 H12          2.4960    -3.6910    -1.8990 h1         1 JS4       0.069700
@<TRIPOS>BOND
     1     1     2 1   
     2     1     3 1   
     3     1    10 1   
     4     1    50 1   
     5     2    18 1   
     6     3     4 1   
     7     3     5 1   
     8     3    51 1   
     9     4    52 1   
    10     4    53 1   
    11     5     6 1   
    12     5     7 1   
    13     5    54 1   
    14     6    55 1   
    15     7     8 1   
    16     7     9 1   
    17     7    56 1   
    18     8    57 1   
    19     9    10 1   
    20     9    11 1   
    21     9    58 1   
    22    11    12 1   
    23    11    59 1   
    24    11    60 1   
    25    12    61 1   
    26    13    14 1   
    27    13    15 1   
    28    13    21 1   
    29    13   106 1   
    30    14    62 1   
    31    14    63 1   
    32    15    16 1   
    33    15    64 1   
    34    15    65 1   
    35    16    17 1   
    36    16    18 1   
    37    16    66 1   
    38    17    67 1   
    39    17    68 1   
    40    18    19 1   
    41    18    69 1   
    42    19    20 1   
    43    19    21 1   
    44    19    70 1   
    45    20    23 1   
    46    21    22 1   
    47    21    71 1   
    48    22    72 1   
    49    23    24 1   
    50    23    28 1   
    51    23    73 1   
    52    24    25 1   
    53    24    26 1   
    54    24    74 1   
    55    25    32 1   
    56    26    27 1   
    57    26    30 1   
    58    26    75 1   
    59    27    28 1   
    60    27    29 1   
    61    27    76 1   
    62    29    31 1   
    63    29    77 1   
    64    29    78 1   
    65    30    39 1   
    66    31    79 1   
    67    32    33 1   
    68    32    80 1   
    69    32    81 1   
    70    33    34 1   
    71    33    82 1   
    72    33    83 1   
    73    34    35 1   
    74    34    84 1   
    75    35    36 1   
    76    35    85 1   
    77    35    86 1   
    78    36    37 1   
    79    36    87 1   
    80    36    88 1   
    81    37    38 1   
    82    37    89 1   
    83    37    90 1   
    84    38    91 1   
    85    38    92 1   
    86    39    40 1   
    87    39    47 1   
    88    39    93 1   
    89    40    41 1   
    90    40    42 1   
    91    40    94 1   
    92    41    95 1   
    93    41    96 1   
    94    42    43 1   
    95    42    44 1   
    96    42    97 1   
    97    43    98 1   
    98    44    45 1   
    99    44    46 1   
   100    44    99 1   
   101    45   100 1   
   102    46    47 1   
   103    46    48 1   
   104    46   101 1   
   105    48    49 1   
   106    48   102 1   
   107    48   103 1   
   108    49   104 1   
   109    49   105 1   
@<TRIPOS>SUBSTRUCTURE
     1 JS4         1 TEMP              0 ****  ****    0 ROOT
