@<TRIPOS>MOLECULE
JS4
  106   109     1     0     0
SMALL
abcg2


@<TRIPOS>ATOM
      1 C11          3.7700     1.6190    -0.1720 c6         1 JS4       0.398300
      2 O11          3.8860     0.6340    -1.1630 os         1 JS4      -0.470000
      3 C21          4.3690     2.9160    -0.7190 c6         1 JS4       0.153500
      4 N21          3.7830     3.2510    -2.0020 n8         1 JS4      -0.983200
      5 C31          5.8810     2.7870    -0.8310 c6         1 JS4       0.172300
      6 O31          6.3970     4.0340    -1.2340 oh         1 JS4      -0.666000
      7 C41          6.4710     2.3510     0.5040 c6         1 JS4       0.101300
      8 O41          7.8560     2.1490     0.3140 oh         1 JS4      -0.722000
      9 C51          5.7850     1.0730     0.9920 c6         1 JS4       0.134300
     10 O51          4.3780     1.2630     1.0310 os         1 JS4      -0.465000
     11 C61          6.2170     0.6990     2.3920 c3         1 JS4       0.170600
     12 O61          5.6170    -0.5230     2.7470 oh         1 JS4      -0.703000
     13 C12          2.7170    -3.3970    -1.6550 c6         1 JS4       0.114500
     14 N12          2.3910    -4.7920    -1.3960 n8         1 JS4      -1.015200
     15 C22          4.1930    -3.0390    -1.5870 c6         1 JS4      -0.110400
     16 C32          4.4090    -1.5560    -1.8560 c6         1 JS4       0.171500
     17 N32          5.8240    -1.2410    -1.7630 n8         1 JS4      -0.997200
     18 C42          3.6180    -0.7170    -0.8470 c6         1 JS4       0.177300
     19 C52          2.1270    -1.0570    -0.9330 c6         1 JS4       0.157300
     20 O52          1.4250    -0.2860     0.0300 os         1 JS4      -0.455000
     21 C62          1.9260    -2.5460    -0.6620 c6         1 JS4       0.153300
     22 O62          0.5620    -2.8690    -0.7320 oh         1 JS4      -0.722000
     23 C13          0.1860     0.2010    -0.3470 c5         1 JS4       0.355300
     24 C23         -0.6320     0.6370     0.8720 c5         1 JS4       0.120300
     25 O23         -1.3830    -0.3430     1.4970 os         1 JS4      -0.439000
     26 C33         -1.5610     1.6770     0.2480 c5         1 JS4       0.158300
     27 C43         -0.6290     2.3600    -0.7500 c5         1 JS4       0.168300
     28 O43          0.3450     1.3850    -1.1090 os         1 JS4      -0.471000
     29 C53          0.0150     3.5980    -0.1590 c3         1 JS4       0.147600
     30 O33         -2.6000     1.0440    -0.4640 os         1 JS4      -0.440000
     31 O53          0.8240     4.2030    -1.1410 oh         1 JS4      -0.710000
     32 C63         -0.6920    -1.3190     2.2480 c3         1 JS4       0.165600
     33 C73         -1.7160    -2.2920     2.7910 c3         1 JS4       0.169800
     34 N73         -2.3660    -3.0170     1.7250 n7         1 JS4      -0.876400
     35 C83         -3.5330    -3.7630     2.1350 c3         1 JS4       0.166800
     36 C15         -4.2120    -4.4260     0.9470 c3         1 JS4      -0.082400
     37 C25         -5.5830    -4.9760     1.3030 c3         1 JS4       0.150800
     38 N25         -6.1960    -5.6360     0.1590 n8         1 JS4      -0.994200
     39 C14         -3.7970     0.8180     0.2080 c6         1 JS4       0.407300
     40 C24         -4.2630    -0.6170    -0.0320 c6         1 JS4       0.119500
     41 N24         -4.3330    -0.8940    -1.4690 n8         1 JS4      -1.010200
     42 C34         -5.6710    -0.7970     0.5440 c6         1 JS4       0.128300
     43 O34         -5.5710    -0.7310     1.9460 oh         1 JS4      -0.659000
     44 C44         -6.6060     0.2940    -0.0120 c6         1 JS4       0.120300
     45 O44         -6.8590     0.0820    -1.3800 oh         1 JS4      -0.738000
     46 C54         -5.9990     1.6730     0.2580 c6         1 JS4       0.162300
     47 O54         -4.7030     1.7600    -0.3040 os         1 JS4      -0.456000
     48 C64         -6.8450     2.7950    -0.3130 c3         1 JS4       0.156800
     49 N64         -6.3690     4.0970     0.1230 n8         1 JS4      -0.984200
     50 H11          2.7220     1.7920     0.0820 h2         1 JS4       0.093700
     51 H21          4.1650     3.6750     0.0560 h1         1 JS4       0.024700
     52 H211         2.7780     3.3380    -1.8920 hn         1 JS4       0.413000
     53 H212         4.1110     4.1660    -2.2830 hn         1 JS4       0.413000
     54 H31          6.1140     2.0160    -1.5820 h1         1 JS4       0.067700
     55 H5           7.3540     3.9460    -1.3070 ho         1 JS4       0.456000
     56 H41          6.2900     3.1510     1.2380 h1         1 JS4       0.044700
     57 H4           8.3240     2.4060     1.1130 ho         1 JS4       0.506000
     58 H51          6.0460     0.2480     0.3130 h1         1 JS4       0.091700
     59 H611         7.3110     0.6290     2.4100 h1         1 JS4       0.020200
     60 H612         5.9350     1.5080     3.0820 h1         1 JS4       0.020200
     61 H61          5.9120    -0.7500     3.6330 ho         1 JS4       0.499000
     62 H121         2.6650    -5.3690    -2.1810 hn         1 JS4       0.404000
     63 H122         2.9160    -5.1300    -0.5970 hn         1 JS4       0.404000
     64 H221         4.5960    -3.2930    -0.6000 hc         1 JS4       0.052200
     65 H222         4.7490    -3.6300    -2.3200 hc         1 JS4       0.052200
     66 H32          3.9990    -1.3370    -2.8570 h1         1 JS4       0.031700
     67 H321         6.3300    -1.8060    -2.4350 hn         1 JS4       0.402500
     68 H322         5.9740    -0.2830    -2.0510 hn         1 JS4       0.402500
     69 H42          3.9820    -0.9620     0.1600 h1         1 JS4       0.079700
     70 H52          1.7680    -0.8250    -1.9460 h1         1 JS4       0.070700
     71 H62          2.3220    -2.7560     0.3480 h1         1 JS4       0.039700
     72 H3           0.5450    -3.8320    -0.8480 ho         1 JS4       0.527000
     73 H13         -0.3610    -0.5470    -0.9350 h2         1 JS4       0.081700
     74 H23          0.0500     1.1430     1.5770 h1         1 JS4       0.051700
     75 H33         -1.9650     2.3780     0.9860 h1         1 JS4       0.068700
     76 H43         -1.1900     2.6550    -1.6440 h1         1 JS4       0.101700
     77 H531        -0.7900     4.2720     0.1610 h1         1 JS4       0.025200
     78 H532         0.5910     3.3330     0.7370 h1         1 JS4       0.025200
     79 H53          1.2280     4.9850    -0.7550 ho         1 JS4       0.499000
     80 H631        -0.1450    -0.8540     3.0790 h1         1 JS4       0.038700
     81 H632         0.0340    -1.8560     1.6340 h1         1 JS4       0.038700
     82 H731        -2.4780    -1.7370     3.3460 h1         1 JS4       0.036200
     83 H732        -1.2120    -2.9420     3.5260 h1         1 JS4       0.036200
     84 H73         -1.6990    -3.6160     1.2550 hn         1 JS4       0.418000
     85 H831        -4.2310    -3.0540     2.5910 h1         1 JS4       0.028200
     86 H832        -3.3210    -4.5260     2.9040 h1         1 JS4       0.028200
     87 H151        -3.5790    -5.2340     0.5600 hc         1 JS4       0.049700
     88 H152        -4.3160    -3.6960     0.1390 hc         1 JS4       0.049700
     89 H11A        -6.2240    -4.1430     1.6040 h1         1 JS4       0.024700
     90 H12A        -5.4920    -5.6280     2.1840 h1         1 JS4       0.024700
     91 H251        -5.6800    -6.4820    -0.0500 hn         1 JS4       0.392000
     92 H252        -7.1270    -5.9450     0.4090 hn         1 JS4       0.392000
     93 H14         -3.6750     0.9670     1.2910 h2         1 JS4       0.048700
     94 H24         -3.5680    -1.2830     0.4930 h1         1 JS4       0.100700
     95 H241        -3.4500    -0.6690    -1.9110 hn         1 JS4       0.414500
     96 H242        -4.4660    -1.8890    -1.6090 hn         1 JS4       0.414500
     97 H34         -6.0610    -1.7770     0.2260 h1         1 JS4       0.052700
     98 H2          -6.4400    -0.9030     2.3210 ho         1 JS4       0.441000
     99 H44         -7.5660     0.2380     0.5160 h1         1 JS4       0.051700
    100 H1          -5.9890    -0.1690    -1.7650 ho         1 JS4       0.556000
    101 H54         -5.9430     1.8020     1.3510 h1         1 JS4       0.031700
    102 H641        -6.8030     2.7530    -1.4030 h1         1 JS4       0.045700
    103 H642        -7.8900     2.5960    -0.0360 h1         1 JS4       0.045700
    104 H21A        -6.9160     4.8180    -0.3310 hn         1 JS4       0.386000
    105 H22         -6.5510     4.2060     1.1130 hn         1 JS4       0.386000
    106 H12          2.3460    -3.1650    -2.6610 h1         1 JS4       0.069700
@<TRIPOS>BOND
     1     1     2 1   
     2     1     3 1   
     3     1    10 1   
     4     1    50 1   
     5     2    18 1   
     6     3     4 1   
     7     3     5 1   
     8     3    51 1   
     9     4    52 1   
    10     4    53 1   
    11     5     6 1   
    12     5     7 1   
    13     5    54 1   
    14     6    55 1   
    15     7     8 1   
    16     7     9 1   
    17     7    56 1   
    18     8    57 1   
    19     9    10 1   
    20     9    11 1   
    21     9    58 1   
    22    11    12 1   
    23    11    59 1   
    24    11    60 1   
    25    12    61 1   
    26    13    14 1   
    27    13    15 1   
    28    13    21 1   
    29    13   106 1   
    30    14    62 1   
    31    14    63 1   
    32    15    16 1   
    33    15    64 1   
    34    15    65 1   
    35    16    17 1   
    36    16    18 1   
    37    16    66 1   
    38    17    67 1   
    39    17    68 1   
    40    18    19 1   
    41    18    69 1   
    42    19    20 1   
    43    19    21 1   
    44    19    70 1   
    45    20    23 1   
    46    21    22 1   
    47    21    71 1   
    48    22    72 1   
    49    23    24 1   
    50    23    28 1   
    51    23    73 1   
    52    24    25 1   
    53    24    26 1   
    54    24    74 1   
    55    25    32 1   
    56    26    27 1   
    57    26    30 1   
    58    26    75 1   
    59    27    28 1   
    60    27    29 1   
    61    27    76 1   
    62    29    31 1   
    63    29    77 1   
    64    29    78 1   
    65    30    39 1   
    66    31    79 1   
    67    32    33 1   
    68    32    80 1   
    69    32    81 1   
    70    33    34 1   
    71    33    82 1   
    72    33    83 1   
    73    34    35 1   
    74    34    84 1   
    75    35    36 1   
    76    35    85 1   
    77    35    86 1   
    78    36    37 1   
    79    36    87 1   
    80    36    88 1   
    81    37    38 1   
    82    37    89 1   
    83    37    90 1   
    84    38    91 1   
    85    38    92 1   
    86    39    40 1   
    87    39    47 1   
    88    39    93 1   
    89    40    41 1   
    90    40    42 1   
    91    40    94 1   
    92    41    95 1   
    93    41    96 1   
    94    42    43 1   
    95    42    44 1   
    96    42    97 1   
    97    43    98 1   
    98    44    45 1   
    99    44    46 1   
   100    44    99 1   
   101    45   100 1   
   102    46    47 1   
   103    46    48 1   
   104    46   101 1   
   105    48    49 1   
   106    48   102 1   
   107    48   103 1   
   108    49   104 1   
   109    49   105 1   
@<TRIPOS>SUBSTRUCTURE
     1 JS4         1 TEMP              0 ****  ****    0 ROOT
