@<TRIPOS>MOLECULE
JS5
  113   117     1     0     0
SMALL
No Charge or Current Charge


@<TRIPOS>ATOM
      1 C11         45.1010     6.9580    -8.1290 c6         1 JS5       0.377300
      2 O11         46.0810     5.9050    -7.9160 os         1 JS5      -0.470000
      3 C21         43.8610     6.4510    -8.9590 c6         1 JS5       0.165500
      4 N21         43.0890     5.3280    -8.3350 n8         1 JS5      -0.993200
      5 C31         44.3230     6.0800   -10.4030 c6         1 JS5       0.170300
      6 O31         43.2150     5.6430   -11.2160 oh         1 JS5      -0.670000
      7 C41         45.0220     7.2970   -11.0740 c6         1 JS5       0.102300
      8 O41         45.4610     6.9360   -12.4040 oh         1 JS5      -0.728000
      9 C51         46.2050     7.7730   -10.1690 c6         1 JS5       0.144300
     10 O51         45.7240     8.0640    -8.8270 os         1 JS5      -0.468000
     11 C61         46.9040     9.0610   -10.7230 c3         1 JS5       0.169600
     12 O61         47.9440     9.5680    -9.8630 oh         1 JS5      -0.704000
     13 C12         49.2580     5.5930    -4.9200 c6         1 JS5       0.160500
     14 N12         50.4050     5.9770    -4.0640 n8         1 JS5      -0.984200
     15 C22         49.6290     5.6880    -6.4210 c6         1 JS5      -0.079400
     16 C32         48.4190     5.3230    -7.3200 c6         1 JS5       0.167500
     17 N32         48.8130     5.3860    -8.7480 n8         1 JS5      -0.993200
     18 C42         47.1680     6.2190    -6.9960 c6         1 JS5       0.175300
     19 C52         46.7980     6.0160    -5.4830 c6         1 JS5       0.137300
     20 O52         45.5990     6.7210    -5.0680 os         1 JS5      -0.488000
     21 C62         48.0050     6.4730    -4.6060 c6         1 JS5       0.112300
     22 O62         47.6790     6.4440    -3.2020 oh         1 JS5      -0.731000
     23 C13         44.3840     5.9320    -4.9830 c5         1 JS5       0.391300
     24 O13         43.2950     6.8440    -4.7660 os         1 JS5      -0.482000
     25 C23         44.4380     4.9890    -3.7230 c5         1 JS5       0.130300
     26 O23         44.2900     3.6140    -4.1970 os         1 JS5      -0.468000
     27 C33         43.1830     5.4530    -2.8820 c5         1 JS5       0.127300
     28 O33         42.4620     4.2990    -2.3700 os         1 JS5      -0.440000
     29 C43         42.3170     6.1350    -3.9810 c5         1 JS5       0.151300
     30 C53         41.1950     7.1050    -3.5190 c3         1 JS5       0.151600
     31 O53         41.7080     8.1420    -2.6600 oh         1 JS5      -0.727000
     32 C63         44.6370     2.5310    -3.2960 c3         1 JS5       0.156600
     33 C73         43.8700     1.2710    -3.7710 c3         1 JS5       0.152800
     34 N73         42.4440     1.6120    -3.9760 n7         1 JS5      -0.871400
     35 C83         41.7400     0.8160    -4.9970 c3         1 JS5       0.162800
     36 C15         40.4910     1.5450    -5.5720 c6         1 JS5      -0.065700
     37 C25         39.4130     1.8640    -4.5020 c6         1 JS5       0.160800
     38 N25         38.1410     2.3610    -5.1100 n7         1 JS5      -0.865400
     39 C35         38.3030     3.0900    -6.4000 c6         1 JS5       0.155800
     40 C45         39.6640     3.8230    -6.4910 c6         1 JS5      -0.107400
     41 C55         40.8590     2.8320    -6.3780 c6         1 JS5      -0.070400
     42 C14         42.0410     4.3630    -0.9950 c6         1 JS5       0.405300
     43 C24         41.6800     2.9300    -0.4290 c6         1 JS5       0.167500
     44 N24         40.9080     2.0440    -1.3690 n8         1 JS5      -0.997200
     45 C34         41.0330     3.0700     1.0030 c6         1 JS5       0.169300
     46 O34         42.0710     3.3630     1.9630 oh         1 JS5      -0.670000
     47 C44         39.9170     4.1780     1.0640 c6         1 JS5       0.124300
     48 O44         38.7160     3.7480     0.3810 oh         1 JS5      -0.692000
     49 C54         40.5010     5.5020     0.4600 c6         1 JS5       0.149300
     50 O54         40.9310     5.2730    -0.9010 os         1 JS5      -0.475000
     51 C64         39.4960     6.7000     0.4430 c3         1 JS5       0.158800
     52 N64         40.0980     7.9940     0.0290 n8         1 JS5      -1.011200
     53 H11         44.7240     7.3260    -7.1660 h2         1 JS5       0.108700
     54 H21         43.1500     7.2850    -9.0470 h1         1 JS5       0.016700
     55 H211        42.6350     4.8290    -9.1110 hn         1 JS5       0.415500
     56 H212        42.2960     5.7220    -7.8190 hn         1 JS5       0.415500
     57 H31         45.0620     5.2670   -10.3230 h1         1 JS5       0.075700
     58 H3          43.5460     5.7220   -12.1400 ho         1 JS5       0.455000
     59 H41         44.2910     8.1180   -11.1350 h1         1 JS5       0.044700
     60 H2          45.5150     7.7640   -12.9380 ho         1 JS5       0.507000
     61 H51         46.9620     6.9790   -10.1150 h1         1 JS5       0.081700
     62 H611        47.3240     8.8280   -11.7100 h1         1 JS5       0.024200
     63 H612        46.1340     9.8310   -10.8700 h1         1 JS5       0.024200
     64 H61         48.2670    10.4060   -10.2670 ho         1 JS5       0.498000
     65 H121        50.0220     6.1020    -3.1180 hn         1 JS5       0.398500
     66 H122        50.6970     6.9280    -4.3140 hn         1 JS5       0.398500
     67 H221        49.9730     6.7050    -6.6600 hc         1 JS5       0.062200
     68 H222        50.4690     5.0140    -6.6350 hc         1 JS5       0.062200
     69 H32         48.1400     4.2760    -7.1230 h1         1 JS5       0.029700
     70 H321        47.9680     5.2180    -9.3050 hn         1 JS5       0.402500
     71 H322        49.4100     4.5790    -8.9650 hn         1 JS5       0.402500
     72 H42         47.4630     7.2680    -7.1500 h1         1 JS5       0.082700
     73 H52         46.6520     4.9390    -5.3110 h1         1 JS5       0.069700
     74 H62         48.2440     7.5100    -4.8900 h1         1 JS5       0.044700
     75 H1          46.8480     6.9660    -3.1180 ho         1 JS5       0.504000
     76 H13         44.2220     5.3500    -5.9000 h2         1 JS5       0.090700
     77 H23         45.3740     5.0850    -3.1600 h1         1 JS5       0.060700
     78 H33         43.4630     6.1470    -2.0770 h1         1 JS5       0.090700
     79 H43         41.8540     5.3710    -4.6200 h1         1 JS5       0.074700
     80 H531        40.7310     7.5450    -4.4120 h1         1 JS5       0.046200
     81 H532        40.4140     6.5300    -3.0060 h1         1 JS5       0.046200
     82 H53         42.4520     8.5560    -3.1570 ho         1 JS5       0.504000
     83 H631        45.7180     2.3410    -3.3110 h1         1 JS5       0.040700
     84 H632        44.3510     2.7550    -2.2610 h1         1 JS5       0.040700
     85 H731        44.3300     0.9450    -4.7140 h1         1 JS5       0.042200
     86 H732        43.9860     0.4570    -3.0430 h1         1 JS5       0.042200
     87 H73         42.4820     2.5820    -4.3200 hn         1 JS5       0.429000
     88 H831        42.4080     0.6070    -5.8440 h1         1 JS5       0.030700
     89 H832        41.4330    -0.1510    -4.5770 h1         1 JS5       0.030700
     90 H15         40.0480     0.8240    -6.2730 hc         1 JS5       0.056700
     91 H251        39.2040     0.9740    -3.8900 h1         1 JS5       0.044200
     92 H252        39.8090     2.6400    -3.8310 h1         1 JS5       0.044200
     93 H25         37.6930     2.9830    -4.4260 hn         1 JS5       0.403000
     94 H351        38.2410     2.3690    -7.2290 h1         1 JS5       0.041700
     95 H352        37.4760     3.8040    -6.5290 h1         1 JS5       0.041700
     96 H451        39.7290     4.3820    -7.4340 hc         1 JS5       0.048200
     97 H452        39.7230     4.5690    -5.6860 hc         1 JS5       0.048200
     98 H551        41.7090     3.3560    -5.9210 hc         1 JS5       0.038200
     99 H552        41.1920     2.5380    -7.3830 hc         1 JS5       0.038200
    100 H14         42.8720     4.7560    -0.3900 h2         1 JS5       0.035700
    101 H24         42.6400     2.4090    -0.3000 h1         1 JS5       0.035700
    102 H241        41.0240     1.0700    -1.0760 hn         1 JS5       0.417500
    103 H242        41.3970     2.0640    -2.2810 hn         1 JS5       0.417500
    104 H34         40.5740     2.1040     1.2650 h1         1 JS5       0.057700
    105 H4          41.7200     3.1190     2.8480 ho         1 JS5       0.447000
    106 H44         39.6770     4.3610     2.1220 h1         1 JS5       0.025700
    107 H5          37.9940     4.3650     0.6330 ho         1 JS5       0.498000
    108 H54         41.3700     5.8130     1.0600 h1         1 JS5       0.061700
    109 H11A        38.6820     6.4620    -0.2560 h1         1 JS5       0.035700
    110 H12A        39.0610     6.8230     1.4440 h1         1 JS5       0.035700
    111 H641        39.3500     8.6550    -0.2080 hn         1 JS5       0.407500
    112 H642        40.5880     7.8540    -0.8700 hn         1 JS5       0.407500
    113 H12         49.0080     4.5460    -4.6830 h1         1 JS5       0.075700
@<TRIPOS>BOND
     1     1     2 1   
     2     1     3 1   
     3     1    10 1   
     4     1    53 1   
     5     2    18 1   
     6     3     4 1   
     7     3     5 1   
     8     3    54 1   
     9     4    55 1   
    10     4    56 1   
    11     5     6 1   
    12     5     7 1   
    13     5    57 1   
    14     6    58 1   
    15     7     8 1   
    16     7     9 1   
    17     7    59 1   
    18     8    60 1   
    19     9    10 1   
    20     9    11 1   
    21     9    61 1   
    22    11    12 1   
    23    11    62 1   
    24    11    63 1   
    25    12    64 1   
    26    13    14 1   
    27    13    15 1   
    28    13    21 1   
    29    13   113 1   
    30    14    65 1   
    31    14    66 1   
    32    15    16 1   
    33    15    67 1   
    34    15    68 1   
    35    16    17 1   
    36    16    18 1   
    37    16    69 1   
    38    17    70 1   
    39    17    71 1   
    40    18    19 1   
    41    18    72 1   
    42    19    20 1   
    43    19    21 1   
    44    19    73 1   
    45    20    23 1   
    46    21    22 1   
    47    21    74 1   
    48    22    75 1   
    49    23    24 1   
    50    23    25 1   
    51    23    76 1   
    52    24    29 1   
    53    25    26 1   
    54    25    27 1   
    55    25    77 1   
    56    26    32 1   
    57    27    28 1   
    58    27    29 1   
    59    27    78 1   
    60    28    42 1   
    61    29    30 1   
    62    29    79 1   
    63    30    31 1   
    64    30    80 1   
    65    30    81 1   
    66    31    82 1   
    67    32    33 1   
    68    32    83 1   
    69    32    84 1   
    70    33    34 1   
    71    33    85 1   
    72    33    86 1   
    73    34    35 1   
    74    34    87 1   
    75    35    36 1   
    76    35    88 1   
    77    35    89 1   
    78    36    37 1   
    79    36    41 1   
    80    36    90 1   
    81    37    38 1   
    82    37    91 1   
    83    37    92 1   
    84    38    39 1   
    85    38    93 1   
    86    39    40 1   
    87    39    94 1   
    88    39    95 1   
    89    40    41 1   
    90    40    96 1   
    91    40    97 1   
    92    41    98 1   
    93    41    99 1   
    94    42    43 1   
    95    42    50 1   
    96    42   100 1   
    97    43    44 1   
    98    43    45 1   
    99    43   101 1   
   100    44   102 1   
   101    44   103 1   
   102    45    46 1   
   103    45    47 1   
   104    45   104 1   
   105    46   105 1   
   106    47    48 1   
   107    47    49 1   
   108    47   106 1   
   109    48   107 1   
   110    49    50 1   
   111    49    51 1   
   112    49   108 1   
   113    51    52 1   
   114    51   109 1   
   115    51   110 1   
   116    52   111 1   
   117    52   112 1   
@<TRIPOS>SUBSTRUCTURE
     1 JS5         1 TEMP              0 ****  ****    0 ROOT
