@<TRIPOS>MOLECULE
JS5
  113   117     1     0     0
SMALL
abcg2


@<TRIPOS>ATOM
      1 C11         45.1730     7.2320    -7.6630 c6         1 JS5       0.377300
      2 O11         46.3700     6.6190    -8.0850 os         1 JS5      -0.470000
      3 C21         44.1010     7.0170    -8.7370 c6         1 JS5       0.165500
      4 N21         43.9550     5.6020    -9.0690 n8         1 JS5      -0.993200
      5 C31         44.4240     7.8360    -9.9750 c6         1 JS5       0.170300
      6 O31         43.3470     7.6850   -10.9000 oh         1 JS5      -0.670000
      7 C41         44.6190     9.3000    -9.6140 c6         1 JS5       0.102300
      8 O41         45.0200     9.9720   -10.8120 oh         1 JS5      -0.728000
      9 C51         45.6760     9.4390    -8.5140 c6         1 JS5       0.144300
     10 O51         45.3370     8.6130    -7.3930 os         1 JS5      -0.468000
     11 C61         45.7880    10.8570    -8.0060 c3         1 JS5       0.169600
     12 O61         46.9450    10.9630    -7.1760 oh         1 JS5      -0.704000
     13 C12         49.7490     4.8880    -6.1490 c6         1 JS5       0.160500
     14 N12         50.9090     4.6780    -5.2800 n8         1 JS5      -0.984200
     15 C22         49.8920     6.1960    -6.9150 c6         1 JS5      -0.079400
     16 C32         48.7240     6.4310    -7.8630 c6         1 JS5       0.167500
     17 N32         48.9110     7.6950    -8.5790 n8         1 JS5      -0.993200
     18 C42         47.3980     6.4550    -7.1020 c6         1 JS5       0.175300
     19 C52         47.2250     5.1510    -6.3200 c6         1 JS5       0.137300
     20 O52         46.0340     5.2080    -5.5230 os         1 JS5      -0.488000
     21 C62         48.4160     4.8770    -5.3980 c6         1 JS5       0.112300
     22 O62         48.2690     3.5940    -4.7790 oh         1 JS5      -0.731000
     23 C13         45.1980     4.0800    -5.5300 c5         1 JS5       0.391300
     24 O13         43.9840     4.3710    -6.2190 os         1 JS5      -0.482000
     25 C23         44.7720     3.7070    -4.1100 c5         1 JS5       0.130300
     26 O23         44.4280     2.3330    -4.1210 os         1 JS5      -0.468000
     27 C33         43.5310     4.5850    -3.9210 c5         1 JS5       0.127300
     28 O33         42.6870     4.0920    -2.8970 os         1 JS5      -0.440000
     29 C43         42.8780     4.5070    -5.3040 c5         1 JS5       0.151300
     30 C53         41.9960     5.6700    -5.6940 c3         1 JS5       0.151600
     31 O53         42.6440     6.9160    -5.4250 oh         1 JS5      -0.727000
     32 C63         44.5030     1.6620    -2.8570 c3         1 JS5       0.156600
     33 C73         43.6240     0.4350    -2.9440 c3         1 JS5       0.152800
     34 N73         42.2130     0.8010    -3.0650 n7         1 JS5      -0.871400
     35 C83         41.4040    -0.2810    -3.6250 c3         1 JS5       0.162800
     36 C15         39.9280     0.0720    -3.7980 c6         1 JS5      -0.065700
     37 C25         39.2140     0.3300    -2.4750 c6         1 JS5       0.160800
     38 N25         37.7490     0.3420    -2.6790 n7         1 JS5      -0.865400
     39 C35         37.3310     0.9530    -3.9590 c6         1 JS5       0.155800
     40 C45         38.3510     1.9540    -4.4960 c6         1 JS5      -0.107400
     41 C55         39.6910     1.2500    -4.7710 c6         1 JS5      -0.070400
     42 C14         42.2490     5.0110    -1.9490 c6         1 JS5       0.405300
     43 C24         41.7730     4.2430    -0.7150 c6         1 JS5       0.167500
     44 N24         40.9050     3.1370    -1.1000 n8         1 JS5      -0.997200
     45 C34         41.0480     5.1920     0.2540 c6         1 JS5       0.169300
     46 O34         42.0710     5.9200     0.9380 oh         1 JS5      -0.670000
     47 C44         40.0800     6.1760    -0.4260 c6         1 JS5       0.124300
     48 O44         38.8700     5.4850    -0.7310 oh         1 JS5      -0.692000
     49 C54         40.7420     6.8050    -1.6510 c6         1 JS5       0.149300
     50 O54         41.2150     5.7840    -2.5340 os         1 JS5      -0.475000
     51 C64         39.8440     7.7190    -2.4580 c3         1 JS5       0.158800
     52 N64         40.6380     8.4860    -3.4230 n8         1 JS5      -1.011200
     53 H11         44.8420     6.8100    -6.7200 h2         1 JS5       0.108700
     54 H21         43.1790     7.4370    -8.3100 h1         1 JS5       0.016700
     55 H211        43.1180     5.4790    -9.6280 hn         1 JS5       0.415500
     56 H212        43.8280     5.0670    -8.2140 hn         1 JS5       0.415500
     57 H31         45.3510     7.4610   -10.4250 h1         1 JS5       0.075700
     58 H3          43.5260     8.2820   -11.6400 ho         1 JS5       0.455000
     59 H41         43.6660     9.7050    -9.2580 h1         1 JS5       0.044700
     60 H2          44.6740    10.8720   -10.8030 ho         1 JS5       0.507000
     61 H51         46.6440     9.1340    -8.9200 h1         1 JS5       0.081700
     62 H611        45.8680    11.5350    -8.8600 h1         1 JS5       0.024200
     63 H612        44.8810    11.1090    -7.4440 h1         1 JS5       0.024200
     64 H61         46.9990    11.8690    -6.8500 ho         1 JS5       0.498000
     65 H121        50.7510     3.8480    -4.7170 hn         1 JS5       0.398500
     66 H122        50.9810     5.4520    -4.6240 hn         1 JS5       0.398500
     67 H221        49.9580     7.0320    -6.2090 hc         1 JS5       0.062200
     68 H222        50.8240     6.1800    -7.4840 hc         1 JS5       0.062200
     69 H32         48.6710     5.5790    -8.5570 h1         1 JS5       0.029700
     70 H321        48.1940     7.7820    -9.2910 hn         1 JS5       0.402500
     71 H322        49.7980     7.6690    -9.0730 hn         1 JS5       0.402500
     72 H42         47.3890     7.3060    -6.4150 h1         1 JS5       0.082700
     73 H52         47.1340     4.3290    -7.0360 h1         1 JS5       0.069700
     74 H62         48.4430     5.6560    -4.6280 h1         1 JS5       0.044700
     75 H1          47.8000     3.7010    -3.9450 ho         1 JS5       0.504000
     76 H13         45.6880     3.2490    -6.0350 h2         1 JS5       0.090700
     77 H23         45.5570     3.9140    -3.3820 h1         1 JS5       0.060700
     78 H33         43.8400     5.6100    -3.7070 h1         1 JS5       0.090700
     79 H43         42.2700     3.5990    -5.3510 h1         1 JS5       0.074700
     80 H531        41.7490     5.5880    -6.7550 h1         1 JS5       0.046200
     81 H532        41.0710     5.5990    -5.1150 h1         1 JS5       0.046200
     82 H53         42.4160     7.5420    -6.1200 ho         1 JS5       0.504000
     83 H631        45.5410     1.3720    -2.6610 h1         1 JS5       0.040700
     84 H632        44.1640     2.3230    -2.0590 h1         1 JS5       0.040700
     85 H731        43.9590    -0.1690    -3.8020 h1         1 JS5       0.042200
     86 H732        43.7710    -0.1740    -2.0470 h1         1 JS5       0.042200
     87 H73         42.1620     1.6040    -3.6820 hn         1 JS5       0.429000
     88 H831        41.8050    -0.6060    -4.6000 h1         1 JS5       0.030700
     89 H832        41.4840    -1.1420    -2.9540 h1         1 JS5       0.030700
     90 H15         39.4650    -0.8200    -4.2340 hc         1 JS5       0.056700
     91 H251        39.4620    -0.4580    -1.7580 h1         1 JS5       0.044200
     92 H252        39.5690     1.2750    -2.0540 h1         1 JS5       0.044200
     93 H25         37.3300     0.8690    -1.9230 hn         1 JS5       0.403000
     94 H351        37.1830     0.1650    -4.7060 h1         1 JS5       0.041700
     95 H352        36.3600     1.4270    -3.8070 h1         1 JS5       0.041700
     96 H451        37.9750     2.4270    -5.4060 hc         1 JS5       0.048200
     97 H452        38.4890     2.7500    -3.7590 hc         1 JS5       0.048200
     98 H551        40.4970     1.9840    -4.6970 hc         1 JS5       0.038200
     99 H552        39.7130     0.8700    -5.7960 hc         1 JS5       0.038200
    100 H14         43.0660     5.6880    -1.6620 h2         1 JS5       0.035700
    101 H24         42.6790     3.9060    -0.1930 h1         1 JS5       0.035700
    102 H241        40.5590     2.6710    -0.2680 hn         1 JS5       0.417500
    103 H242        41.4280     2.4440    -1.6310 hn         1 JS5       0.417500
    104 H34         40.4730     4.5880     0.9630 h1         1 JS5       0.057700
    105 H4          41.6520     6.5050     1.5820 ho         1 JS5       0.447000
    106 H44         39.8730     6.9760     0.2960 h1         1 JS5       0.025700
    107 H5          38.1740     6.1360    -0.8780 ho         1 JS5       0.498000
    108 H54         41.6000     7.3890    -1.2920 h1         1 JS5       0.061700
    109 H11A        39.0610     7.1100    -2.9270 h1         1 JS5       0.035700
    110 H12A        39.3520     8.4150    -1.7720 h1         1 JS5       0.035700
    111 H641        40.0210     8.9960    -4.0470 hn         1 JS5       0.407500
    112 H642        41.1780     7.8510    -4.0050 hn         1 JS5       0.407500
    113 H12         49.7250     4.0600    -6.8650 h1         1 JS5       0.075700
@<TRIPOS>BOND
     1     1     2 1   
     2     1     3 1   
     3     1    10 1   
     4     1    53 1   
     5     2    18 1   
     6     3     4 1   
     7     3     5 1   
     8     3    54 1   
     9     4    55 1   
    10     4    56 1   
    11     5     6 1   
    12     5     7 1   
    13     5    57 1   
    14     6    58 1   
    15     7     8 1   
    16     7     9 1   
    17     7    59 1   
    18     8    60 1   
    19     9    10 1   
    20     9    11 1   
    21     9    61 1   
    22    11    12 1   
    23    11    62 1   
    24    11    63 1   
    25    12    64 1   
    26    13    14 1   
    27    13    15 1   
    28    13    21 1   
    29    13   113 1   
    30    14    65 1   
    31    14    66 1   
    32    15    16 1   
    33    15    67 1   
    34    15    68 1   
    35    16    17 1   
    36    16    18 1   
    37    16    69 1   
    38    17    70 1   
    39    17    71 1   
    40    18    19 1   
    41    18    72 1   
    42    19    20 1   
    43    19    21 1   
    44    19    73 1   
    45    20    23 1   
    46    21    22 1   
    47    21    74 1   
    48    22    75 1   
    49    23    24 1   
    50    23    25 1   
    51    23    76 1   
    52    24    29 1   
    53    25    26 1   
    54    25    27 1   
    55    25    77 1   
    56    26    32 1   
    57    27    28 1   
    58    27    29 1   
    59    27    78 1   
    60    28    42 1   
    61    29    30 1   
    62    29    79 1   
    63    30    31 1   
    64    30    80 1   
    65    30    81 1   
    66    31    82 1   
    67    32    33 1   
    68    32    83 1   
    69    32    84 1   
    70    33    34 1   
    71    33    85 1   
    72    33    86 1   
    73    34    35 1   
    74    34    87 1   
    75    35    36 1   
    76    35    88 1   
    77    35    89 1   
    78    36    37 1   
    79    36    41 1   
    80    36    90 1   
    81    37    38 1   
    82    37    91 1   
    83    37    92 1   
    84    38    39 1   
    85    38    93 1   
    86    39    40 1   
    87    39    94 1   
    88    39    95 1   
    89    40    41 1   
    90    40    96 1   
    91    40    97 1   
    92    41    98 1   
    93    41    99 1   
    94    42    43 1   
    95    42    50 1   
    96    42   100 1   
    97    43    44 1   
    98    43    45 1   
    99    43   101 1   
   100    44   102 1   
   101    44   103 1   
   102    45    46 1   
   103    45    47 1   
   104    45   104 1   
   105    46   105 1   
   106    47    48 1   
   107    47    49 1   
   108    47   106 1   
   109    48   107 1   
   110    49    50 1   
   111    49    51 1   
   112    49   108 1   
   113    51    52 1   
   114    51   109 1   
   115    51   110 1   
   116    52   111 1   
   117    52   112 1   
@<TRIPOS>SUBSTRUCTURE
     1 JS5         1 TEMP              0 ****  ****    0 ROOT
