@<TRIPOS>MOLECULE
JS6
  111   115     1     0     0
SMALL
No Charge or Current Charge


@<TRIPOS>ATOM
      1 C11          3.9450     1.0180     1.3660 c6         1 JS6       0.395300
      2 O11          3.3520     2.1550     0.6830 os         1 JS6      -0.468000
      3 C12          2.4010     2.8670    -3.4890 c6         1 JS6       0.115500
      4 N12          2.4330     2.9220    -4.9750 n8         1 JS6      -1.013200
      5 C13          1.3060    -0.5470    -0.1860 c5         1 JS6       0.360300
      6 C14         -2.3700    -2.7240    -1.8000 c6         1 JS6       0.408300
      7 C16         -6.0040     1.1080     3.4620 ca         1 JS6      -0.073300
      8 C21          3.5100     0.9490     2.8780 c6         1 JS6       0.155500
      9 N21          2.0340     0.8140     3.1140 n8         1 JS6      -0.984200
     10 C22          3.4850     3.7440    -2.8320 c6         1 JS6      -0.112400
     11 C23          0.0280    -0.8990    -1.0460 c5         1 JS6       0.127300
     12 O23         -1.1480    -0.2140    -0.5130 os         1 JS6      -0.460000
     13 C24         -3.8790    -2.8830    -1.3710 c6         1 JS6       0.156500
     14 N24         -4.1270    -4.1200    -0.5430 n8         1 JS6      -0.973200
     15 C25         -2.6680     1.6560    -0.2680 c3         1 JS6       0.158800
     16 N25         -2.9630     1.2730     1.1300 n7         1 JS6      -0.858400
     17 C26         -6.8670     0.0030     3.3250 ca         1 JS6      -0.108000
     18 C31          4.0940     2.1790     3.6400 c6         1 JS6       0.174300
     19 O31          3.7620     2.1380     5.0420 oh         1 JS6      -0.666000
     20 C32          3.3660     3.6500    -1.2880 c6         1 JS6       0.173500
     21 N32          4.3710     4.5380    -0.6610 n8         1 JS6      -0.996200
     22 C33         -0.1240    -2.4490    -0.8200 c5         1 JS6       0.145300
     23 O33         -1.5180    -2.8250    -0.6410 os         1 JS6      -0.425000
     24 C34         -4.7790    -2.8710    -2.6520 c6         1 JS6       0.130300
     25 O34         -4.7450    -1.5790    -3.2850 oh         1 JS6      -0.660000
     26 C35         -4.3710     1.4240     1.5400 c3         1 JS6       0.154800
     27 C36         -8.2090     0.0950     3.7360 ca         1 JS6      -0.111500
     28 C41          5.6410     2.2380     3.4670 c6         1 JS6       0.100300
     29 O41          6.1660     3.3950     4.1570 oh         1 JS6      -0.722000
     30 C42          3.4550     2.1640    -0.7710 c6         1 JS6       0.175300
     31 C43          0.5860    -2.6240     0.5460 c5         1 JS6       0.165300
     32 O43          1.7490    -1.7820     0.4040 os         1 JS6      -0.476000
     33 C44         -4.2950    -3.9940    -3.6280 c6         1 JS6       0.121300
     34 O44         -4.4940    -5.2630    -2.9810 oh         1 JS6      -0.681000
     35 C45         -4.5520     1.0080     3.0130 c3         1 JS6      -0.034100
     36 C46         -8.6950     1.2930     4.2870 ca         1 JS6      -0.112000
     37 C51          5.9920     2.2490     1.9440 c6         1 JS6       0.135300
     38 O51          5.3880     1.1040     1.2800 os         1 JS6      -0.466000
     39 C52          2.3470     1.2940    -1.4750 c6         1 JS6       0.156300
     40 O52          2.3770    -0.0920    -1.0490 os         1 JS6      -0.449000
     41 C53          0.9840    -4.0870     0.8850 c3         1 JS6       0.158600
     42 O53          1.4810    -4.2020     2.2330 oh         1 JS6      -0.707000
     43 C54         -2.7790    -3.7560    -3.9520 c6         1 JS6       0.194300
     44 O54         -1.9960    -3.7690    -2.7270 os         1 JS6      -0.470000
     45 C56         -7.8400     2.3990     4.4240 ca         1 JS6      -0.111500
     46 C61          7.5370     2.1990     1.6870 c3         1 JS6       0.171600
     47 O61          7.8890     2.1170     0.2930 oh         1 JS6      -0.701000
     48 C62          2.5340     1.3980    -3.0220 c6         1 JS6       0.155300
     49 O62          1.5890     0.6600    -3.8000 oh         1 JS6      -0.720000
     50 C64         -2.1960    -4.8440    -4.9170 c3         1 JS6       0.157800
     51 N64         -0.7770    -4.6320    -5.3170 n8         1 JS6      -1.003200
     52 C66         -6.4980     2.3070     4.0120 ca         1 JS6      -0.108000
     53 H11          3.6290     0.0800     0.8930 h2         1 JS6       0.092700
     54 H12          1.4110     3.2390    -3.1750 h1         1 JS6       0.067700
     55 HN12         2.1770     3.8720    -5.2780 hn         1 JS6       0.404000
     56 HN1A         3.4080     2.8390    -5.2920 hn         1 JS6       0.404000
     57 H13          1.0810     0.1910     0.5950 h2         1 JS6       0.075700
     58 H14         -2.2370    -1.7420    -2.2780 h2         1 JS6       0.046700
     59 H15         -0.5090     1.7360    -0.0470 h1         1 JS6       0.048200
     60 H15A        -1.0650     1.5020    -1.7250 h1         1 JS6       0.048200
     61 H21          3.9660     0.0480     3.3170 h1         1 JS6       0.026700
     62 HN21         1.7920    -0.1830     3.1350 hn         1 JS6       0.412000
     63 HN2A         1.8650     1.1200     4.0800 hn         1 JS6       0.412000
     64 H22          4.4850     3.4190    -3.1540 hc         1 JS6       0.052200
     65 H22A         3.3680     4.7870    -3.1550 hc         1 JS6       0.052200
     66 H23          0.1410    -0.6590    -2.1100 h1         1 JS6       0.055700
     67 HN24        -3.3050    -4.2450     0.0640 hn         1 JS6       0.400500
     68 HN2B        -4.8790    -3.9190     0.1300 hn         1 JS6       0.400500
     69 H25         -2.7640     2.7430    -0.3980 h1         1 JS6       0.037200
     70 H25A        -3.3810     1.1770    -0.9530 h1         1 JS6       0.037200
     71 HN25        -2.7060     0.2820     1.2170 hn         1 JS6       0.420000
     72 H26         -6.4990    -0.9270     2.8980 ha         1 JS6       0.109000
     73 H31          3.6690     3.0890     3.1890 h1         1 JS6       0.068700
     74 HO31         4.3890     2.7730     5.4600 ho         1 JS6       0.456000
     75 H32          2.3810     4.0450    -0.9940 h1         1 JS6       0.029700
     76 HN32         4.1040     5.5140    -0.8320 hn         1 JS6       0.402000
     77 HN3A         4.2780     4.4360     0.3560 hn         1 JS6       0.402000
     78 H33          0.3480    -3.0440    -1.6140 h1         1 JS6       0.066700
     79 H34         -5.8140    -3.0900    -2.3500 h1         1 JS6       0.029700
     80 HO34        -5.5410    -1.5170    -3.8590 ho         1 JS6       0.448000
     81 H35         -4.6950     2.4680     1.4230 h1         1 JS6       0.035700
     82 H35A        -5.0210     0.7990     0.9110 h1         1 JS6       0.035700
     83 H36         -8.8700    -0.7610     3.6290 ha         1 JS6       0.109000
     84 H41          6.0650     1.3210     3.9050 h1         1 JS6       0.045700
     85 HO41         7.1110     3.2120     4.3770 ho         1 JS6       0.506000
     86 H42          4.4440     1.7720    -1.0550 h1         1 JS6       0.081700
     87 H43         -0.0440    -2.2310     1.3570 h1         1 JS6       0.089700
     88 H44         -4.8780    -3.9500    -4.5590 h1         1 JS6       0.021700
     89 HO44        -4.3240    -5.0510    -2.0150 ho         1 JS6       0.497000
     90 H45         -3.9170     1.6420     3.6440 hc         1 JS6       0.051700
     91 H45A        -4.1890    -0.0190     3.1460 hc         1 JS6       0.051700
     92 H46         -9.7330     1.3640     4.6050 ha         1 JS6       0.111000
     93 H51          5.6070     3.1720     1.4890 h1         1 JS6       0.089700
     94 H52          1.3700     1.7270    -1.2270 h1         1 JS6       0.069700
     95 H53          0.0990    -4.7260     0.7600 h1         1 JS6       0.025200
     96 H53A         1.7410    -4.4260     0.1640 h1         1 JS6       0.025200
     97 HO53         1.7710    -5.1360     2.3550 ho         1 JS6       0.501000
     98 H54         -2.6600    -2.7770    -4.4400 h1         1 JS6       0.052700
     99 H56         -8.2160     3.3280     4.8480 ha         1 JS6       0.109000
    100 H61          7.9900     3.0970     2.1280 h1         1 JS6       0.019200
    101 H61A         7.9450     1.3320     2.2250 h1         1 JS6       0.019200
    102 HO61         8.8670     2.0120     0.2500 ho         1 JS6       0.499000
    103 H62          3.5490     1.0490    -3.2660 h1         1 JS6       0.042700
    104 HO62         1.5620     1.2290    -4.6170 ho         1 JS6       0.531000
    105 H64         -2.2740    -5.8230    -4.4240 h1         1 JS6       0.046700
    106 H64A        -2.8130    -4.8760    -5.8260 h1         1 JS6       0.046700
    107 HN64        -0.2100    -4.5960    -4.4610 hn         1 JS6       0.397000
    108 HN6A        -0.4350    -5.4720    -5.8010 hn         1 JS6       0.397000
    109 H66         -5.8430     3.1690     4.1200 ha         1 JS6       0.109000
    110 H24         -4.1370    -2.0190    -0.7410 h1         1 JS6       0.044700
    111 C15         -1.2410     1.2170    -0.6790 c3         1 JS6       0.155600
@<TRIPOS>BOND
     1     1     2 1   
     2     1     8 1   
     3     1    38 1   
     4     1    53 1   
     5     2    30 1   
     6     3     4 1   
     7     3    10 1   
     8     3    48 1   
     9     3    54 1   
    10     4    55 1   
    11     4    56 1   
    12     5    11 1   
    13     5    32 1   
    14     5    40 1   
    15     5    57 1   
    16     6    13 1   
    17     6    23 1   
    18     6    44 1   
    19     6    58 1   
    20     7    17 ar  
    21     7    35 1   
    22     7    52 ar  
    23     8     9 1   
    24     8    18 1   
    25     8    61 1   
    26     9    62 1   
    27     9    63 1   
    28    10    20 1   
    29    10    64 1   
    30    10    65 1   
    31    11    12 1   
    32    11    22 1   
    33    11    66 1   
    34    12   111 1   
    35    13    14 1   
    36    13    24 1   
    37    13   110 1   
    38    14    67 1   
    39    14    68 1   
    40    15    16 1   
    41    15    69 1   
    42    15    70 1   
    43    15   111 1   
    44    16    26 1   
    45    16    71 1   
    46    17    27 ar  
    47    17    72 1   
    48    18    19 1   
    49    18    28 1   
    50    18    73 1   
    51    19    74 1   
    52    20    21 1   
    53    20    30 1   
    54    20    75 1   
    55    21    76 1   
    56    21    77 1   
    57    22    23 1   
    58    22    31 1   
    59    22    78 1   
    60    24    25 1   
    61    24    33 1   
    62    24    79 1   
    63    25    80 1   
    64    26    35 1   
    65    26    81 1   
    66    26    82 1   
    67    27    36 ar  
    68    27    83 1   
    69    28    29 1   
    70    28    37 1   
    71    28    84 1   
    72    29    85 1   
    73    30    39 1   
    74    30    86 1   
    75    31    32 1   
    76    31    41 1   
    77    31    87 1   
    78    33    34 1   
    79    33    43 1   
    80    33    88 1   
    81    34    89 1   
    82    35    90 1   
    83    35    91 1   
    84    36    45 ar  
    85    36    92 1   
    86    37    38 1   
    87    37    46 1   
    88    37    93 1   
    89    39    40 1   
    90    39    48 1   
    91    39    94 1   
    92    41    42 1   
    93    41    95 1   
    94    41    96 1   
    95    42    97 1   
    96    43    44 1   
    97    43    50 1   
    98    43    98 1   
    99    45    52 ar  
   100    45    99 1   
   101    46    47 1   
   102    46   100 1   
   103    46   101 1   
   104    47   102 1   
   105    48    49 1   
   106    48   103 1   
   107    49   104 1   
   108    50    51 1   
   109    50   105 1   
   110    50   106 1   
   111    51   107 1   
   112    51   108 1   
   113    52   109 1   
   114    59   111 1   
   115    60   111 1   
@<TRIPOS>SUBSTRUCTURE
     1 JS6         1 TEMP              0 ****  ****    0 ROOT
