@<TRIPOS>MOLECULE
JS6
  111   115     1     0     0
SMALL
bcc


@<TRIPOS>ATOM
      1 C11          4.5210     0.6680     0.0390 c6         1 JS6       0.348900
      2 O11          4.2980     1.7260     0.9290 os         1 JS6      -0.421600
      3 C12          1.4400     4.8290     1.3010 c6         1 JS6       0.115500
      4 N12          0.4730     5.8690     0.9850 n8         1 JS6      -0.902800
      5 C13          0.7930     0.3060     0.7580 c5         1 JS6       0.313900
      6 C14         -2.3290    -2.6260     0.5220 c6         1 JS6       0.361900
      7 C16         -7.1210     0.9280    -1.3950 ca         1 JS6      -0.073300
      8 C21          5.6240    -0.2200     0.6190 c6         1 JS6       0.155500
      9 N21          5.3320    -0.5780     1.9940 n8         1 JS6      -0.873800
     10 C22          2.8950     5.1640     1.0060 c6         1 JS6      -0.112400
     11 C23          0.1530    -0.6320    -0.2610 c5         1 JS6       0.104100
     12 O23         -1.0430    -0.2090    -0.8200 os         1 JS6      -0.413600
     13 C24         -3.7050    -2.0750     0.8840 c6         1 JS6       0.156500
     14 N24         -3.8550    -1.9730     2.3220 n8         1 JS6      -0.862800
     15 C25         -2.3370     0.7720    -2.5180 c3         1 JS6       0.158800
     16 N25         -3.3590     1.2380    -1.5980 n7         1 JS6      -0.803200
     17 C26         -7.6130    -0.3070    -0.9770 ca         1 JS6      -0.126000
     18 C31          6.9710     0.4790     0.5250 c6         1 JS6       0.151100
     19 O31          7.9610    -0.4260     0.9560 oh         1 JS6      -0.603800
     20 C32          3.8130     3.9980     1.3520 c6         1 JS6       0.173500
     21 N32          5.1890     4.3470     1.0420 n8         1 JS6      -0.885800
     22 C33         -0.0790    -1.9040     0.5620 c5         1 JS6       0.122100
     23 O33         -1.3510    -1.8890     1.1680 os         1 JS6      -0.378600
     24 C34         -4.7790    -3.0010     0.2990 c6         1 JS6       0.107100
     25 O34         -4.7930    -2.7750    -1.0920 oh         1 JS6      -0.597800
     26 C35         -4.6970     0.8750    -2.0180 c3         1 JS6       0.154800
     27 C36         -8.8730    -0.7420    -1.3620 ca         1 JS6      -0.129500
     28 C41          7.2280     0.9390    -0.9050 c6         1 JS6       0.077100
     29 O41          8.4520     1.6440    -0.9110 oh         1 JS6      -0.599800
     30 C42          3.3950     2.7530     0.5660 c6         1 JS6       0.152100
     31 C43          1.0080    -1.8190     1.6450 c5         1 JS6       0.142100
     32 O43          1.6270    -0.5490     1.5130 os         1 JS6      -0.429600
     33 C44         -4.5180    -4.4920     0.5930 c6         1 JS6       0.098100
     34 O44         -4.7970    -4.8330     1.9250 oh         1 JS6      -0.558800
     35 C45         -5.7360     1.3690    -1.0140 c3         1 JS6      -0.034100
     36 C46         -9.6660     0.0540    -2.1780 ca         1 JS6      -0.130000
     37 C51          6.0660     1.8130    -1.3840 c6         1 JS6       0.112100
     38 O51          4.8480     1.0970    -1.2480 os         1 JS6      -0.419600
     39 C52          1.9400     2.3980     0.8890 c6         1 JS6       0.133100
     40 O52          1.5600     1.2620     0.1280 os         1 JS6      -0.402600
     41 C53          2.0350    -2.9180     1.4980 c3         1 JS6       0.135400
     42 O53          2.9770    -2.8100     2.5370 oh         1 JS6      -0.584800
     43 C54         -3.0680    -4.8370     0.2740 c6         1 JS6       0.171100
     44 O54         -2.1880    -3.9570     0.9440 os         1 JS6      -0.423600
     45 C56         -9.1880     1.2880    -2.6020 ca         1 JS6      -0.129500
     46 C61          6.2000     2.1870    -2.8440 c3         1 JS6       0.148400
     47 O61          5.1590     3.0680    -3.1890 oh         1 JS6      -0.578800
     48 C62          1.0310     3.5700     0.5390 c6         1 JS6       0.132100
     49 O62         -0.3020     3.2400     0.8260 oh         1 JS6      -0.597800
     50 C64         -2.6750    -6.2550     0.6410 c3         1 JS6       0.157800
     51 N64         -1.3500    -6.5630     0.1230 n8         1 JS6      -0.892800
     52 C66         -7.9260     1.7190    -2.2130 ca         1 JS6      -0.126000
     53 H11          3.6170     0.0700    -0.0890 h2         1 JS6       0.092700
     54 H12          1.3390     4.6170     2.3720 h1         1 JS6       0.067700
     55 HN12         0.5390     6.6270     1.6520 hn         1 JS6       0.348800
     56 HN1A         0.6760     6.2690     0.0750 hn         1 JS6       0.348800
     57 H13          0.0310     0.7670     1.4040 h2         1 JS6       0.075700
     58 H14         -2.2120    -2.5730    -0.5720 h2         1 JS6       0.046700
     59 H15         -0.7250     1.7390    -1.4670 h1         1 JS6       0.048200
     60 H15A        -0.2140     0.4730    -2.5980 h1         1 JS6       0.048200
     61 H21          5.6610    -1.0970    -0.0500 h1         1 JS6       0.026700
     62 HN21         4.4110    -0.9970     2.0550 hn         1 JS6       0.356800
     63 HN2A         5.9780    -1.2990     2.2870 hn         1 JS6       0.356800
     64 H22          3.0120     5.4170    -0.0550 hc         1 JS6       0.052200
     65 H22A         3.1940     6.0480     1.5770 hc         1 JS6       0.052200
     66 H23          0.9110    -0.8430    -1.0330 h1         1 JS6       0.055700
     67 HN24        -3.2670    -1.2280     2.6700 hn         1 JS6       0.345300
     68 HN2B        -4.8040    -1.6980     2.5410 hn         1 JS6       0.345300
     69 H25         -2.2940     1.4410    -3.3840 h1         1 JS6       0.037200
     70 H25A        -2.5520    -0.2340    -2.9110 h1         1 JS6       0.037200
     71 HN25        -3.1880     0.8180    -0.6910 hn         1 JS6       0.364800
     72 H26         -7.0020    -0.9330    -0.3370 ha         1 JS6       0.127000
     73 H31          6.9500     1.3650     1.1780 h1         1 JS6       0.068700
     74 HO31         8.8120     0.0240     0.9130 ho         1 JS6       0.417000
     75 H32          3.6750     3.7720     2.4240 h1         1 JS6       0.029700
     76 HN32         5.4360     5.1870     1.5520 hn         1 JS6       0.346800
     77 HN3A         5.8060     3.6270     1.3930 hn         1 JS6       0.346800
     78 H33          0.0390    -2.8000    -0.0570 h1         1 JS6       0.066700
     79 H34         -5.7500    -2.7250     0.7440 h1         1 JS6       0.029700
     80 HO34        -5.5060    -3.2910    -1.4810 ho         1 JS6       0.409000
     81 H35         -4.8980     1.3290    -2.9940 h1         1 JS6       0.035700
     82 H35A        -4.8110    -0.2120    -2.1480 h1         1 JS6       0.035700
     83 H36         -9.2370    -1.7030    -1.0220 ha         1 JS6       0.127000
     84 H41          7.2840     0.0490    -1.5480 h1         1 JS6       0.045700
     85 HO41         8.8800     1.5200    -1.7620 ho         1 JS6       0.407000
     86 H42          3.4810     2.9820    -0.5050 h1         1 JS6       0.081700
     87 H43          0.5320    -1.9050     2.6310 h1         1 JS6       0.089700
     88 H44         -5.1490    -5.0760    -0.0970 h1         1 JS6       0.021700
     89 HO44        -5.7040    -4.5780     2.1220 ho         1 JS6       0.398000
     90 H45         -5.6840     2.4580    -0.9480 hc         1 JS6       0.051700
     91 H45A        -5.4880     0.9800    -0.0220 hc         1 JS6       0.051700
     92 H46        -10.6500    -0.2800    -2.4790 ha         1 JS6       0.129000
     93 H51          6.0430     2.7380    -0.7900 h1         1 JS6       0.089700
     94 H52          1.8560     2.1850     1.9640 h1         1 JS6       0.069700
     95 H53          1.5030    -3.8780     1.5360 h1         1 JS6       0.025200
     96 H53A         2.5050    -2.8490     0.5070 h1         1 JS6       0.025200
     97 HO53         3.6540    -3.4800     2.4020 ho         1 JS6       0.402000
     98 H54         -2.9470    -4.7270    -0.8150 h1         1 JS6       0.052700
     99 H56         -9.7980     1.9170    -3.2370 ha         1 JS6       0.127000
    100 H61          7.1820     2.6510    -2.9920 h1         1 JS6       0.019200
    101 H61A         6.1800     1.2720    -3.4520 h1         1 JS6       0.019200
    102 HO61         5.2850     3.3310    -4.1060 ho         1 JS6       0.400000
    103 H62          1.1520     3.7740    -0.5410 h1         1 JS6       0.042700
    104 HO62        -0.7610     4.0920     0.8730 ho         1 JS6       0.432000
    105 H64         -2.7690    -6.3930     1.7250 h1         1 JS6       0.046700
    106 H64A        -3.3940    -6.9340     0.1740 h1         1 JS6       0.046700
    107 HN64        -0.6630    -6.0030     0.6120 hn         1 JS6       0.341800
    108 HN6A        -1.1240    -7.5240     0.3410 hn         1 JS6       0.341800
    109 H66         -7.5650     2.6850    -2.5460 ha         1 JS6       0.127000
    110 H24         -3.8120    -1.1070     0.3700 h1         1 JS6       0.044700
    111 C15         -0.9760     0.7490    -1.8590 c3         1 JS6       0.132400
@<TRIPOS>BOND
     1     1     2 1   
     2     1     8 1   
     3     1    38 1   
     4     1    53 1   
     5     2    30 1   
     6     3     4 1   
     7     3    10 1   
     8     3    48 1   
     9     3    54 1   
    10     4    55 1   
    11     4    56 1   
    12     5    11 1   
    13     5    32 1   
    14     5    40 1   
    15     5    57 1   
    16     6    13 1   
    17     6    23 1   
    18     6    44 1   
    19     6    58 1   
    20     7    17 ar  
    21     7    35 1   
    22     7    52 ar  
    23     8     9 1   
    24     8    18 1   
    25     8    61 1   
    26     9    62 1   
    27     9    63 1   
    28    10    20 1   
    29    10    64 1   
    30    10    65 1   
    31    11    12 1   
    32    11    22 1   
    33    11    66 1   
    34    12   111 1   
    35    13    14 1   
    36    13    24 1   
    37    13   110 1   
    38    14    67 1   
    39    14    68 1   
    40    15    16 1   
    41    15    69 1   
    42    15    70 1   
    43    15   111 1   
    44    16    26 1   
    45    16    71 1   
    46    17    27 ar  
    47    17    72 1   
    48    18    19 1   
    49    18    28 1   
    50    18    73 1   
    51    19    74 1   
    52    20    21 1   
    53    20    30 1   
    54    20    75 1   
    55    21    76 1   
    56    21    77 1   
    57    22    23 1   
    58    22    31 1   
    59    22    78 1   
    60    24    25 1   
    61    24    33 1   
    62    24    79 1   
    63    25    80 1   
    64    26    35 1   
    65    26    81 1   
    66    26    82 1   
    67    27    36 ar  
    68    27    83 1   
    69    28    29 1   
    70    28    37 1   
    71    28    84 1   
    72    29    85 1   
    73    30    39 1   
    74    30    86 1   
    75    31    32 1   
    76    31    41 1   
    77    31    87 1   
    78    33    34 1   
    79    33    43 1   
    80    33    88 1   
    81    34    89 1   
    82    35    90 1   
    83    35    91 1   
    84    36    45 ar  
    85    36    92 1   
    86    37    38 1   
    87    37    46 1   
    88    37    93 1   
    89    39    40 1   
    90    39    48 1   
    91    39    94 1   
    92    41    42 1   
    93    41    95 1   
    94    41    96 1   
    95    42    97 1   
    96    43    44 1   
    97    43    50 1   
    98    43    98 1   
    99    45    52 ar  
   100    45    99 1   
   101    46    47 1   
   102    46   100 1   
   103    46   101 1   
   104    47   102 1   
   105    48    49 1   
   106    48   103 1   
   107    49   104 1   
   108    50    51 1   
   109    50   105 1   
   110    50   106 1   
   111    51   107 1   
   112    51   108 1   
   113    52   109 1   
   114    59   111 1   
   115    60   111 1   
@<TRIPOS>SUBSTRUCTURE
     1 JS6         1 TEMP              0 ****  ****    0 ROOT
