@<TRIPOS>MOLECULE
JS7
   39    40     1     0     0
SMALL
No Charge or Current Charge


@<TRIPOS>ATOM
      1 N1           4.5800    -1.6190     1.1340 nb         1 JS7      -0.330000
      2 C2           3.2780    -1.9370     1.0240 ca         1 JS7       0.248900
      3 N3           2.3780    -1.3430     0.2230 nb         1 JS7      -0.304000
      4 C4           2.8250    -0.3350    -0.5410 ca         1 JS7       0.461900
      5 C5           4.1640     0.0600    -0.5140 ca         1 JS7      -0.423200
      6 C6           5.0270    -0.6140     0.3570 ca         1 JS7       0.452300
      7 N7           1.8930     0.2750    -1.3700 nu         1 JS7      -0.886100
      8 C8          -1.7330     0.6030    -0.1390 ca         1 JS7      -0.026300
      9 C9          -2.3050    -0.5520     0.4270 ca         1 JS7      -0.129000
     10 C10         -3.6990    -0.7260     0.4380 ca         1 JS7      -0.006500
     11 C11         -4.5370     0.2610    -0.1240 ca         1 JS7      -0.273500
     12 C12         -3.9670     1.4180    -0.6940 ca         1 JS7      -0.006500
     13 C13         -2.5710     1.5840    -0.7000 ca         1 JS7      -0.129000
     14 S14         -6.3190     0.0510    -0.1150 sy         1 JS7       1.122600
     15 O15         -6.9340     0.8220    -1.1960 o          1 JS7      -0.542000
     16 O16         -6.6580    -1.3440     0.1590 o          1 JS7      -0.542000
     17 N17         -6.7410     0.8310     1.2600 n8         1 JS7      -1.001100
     18 N18          4.6840     1.1260    -1.3680 no         1 JS7       0.732200
     19 O19          4.0460     2.1840    -1.4140 o          1 JS7      -0.419500
     20 O20          5.5830     0.8320    -2.1610 o          1 JS7      -0.419500
     21 O21          6.3430    -0.2120     0.4360 os         1 JS7      -0.412300
     22 C22          7.2790    -0.8770     1.3070 c3         1 JS7       0.160900
     23 C23          0.4290     0.0870    -1.3670 c3         1 JS7       0.230800
     24 C24         -0.2210     0.7810    -0.1530 c3         1 JS7      -0.063100
     25 H2           2.9170    -2.7520     1.6490 h5         1 JS7       0.054100
     26 HN7          2.2410     1.1160    -1.8360 hn         1 JS7       0.541000
     27 H9          -1.6670    -1.3190     0.8610 ha         1 JS7       0.121500
     28 H10         -4.1200    -1.6270     0.8810 ha         1 JS7       0.138500
     29 H12         -4.5990     2.1890    -1.1310 ha         1 JS7       0.138500
     30 H13         -2.1420     2.4800    -1.1440 ha         1 JS7       0.121500
     31 HN17        -7.2970     0.1170     1.7240 hn         1 JS7       0.473000
     32 HN1A        -5.8680     0.8380     1.7810 hn         1 JS7       0.473000
     33 H22          8.2710    -0.4170     1.2250 h1         1 JS7       0.058700
     34 H22A         6.9580    -0.8070     2.3550 h1         1 JS7       0.058700
     35 H22B         7.3750    -1.9380     1.0430 h1         1 JS7       0.058700
     36 H23         -0.0020     0.5180    -2.2820 h1         1 JS7       0.069200
     37 H23A         0.1760    -0.9830    -1.3630 h1         1 JS7       0.069200
     38 H24          0.0350     1.8470    -0.1690 hc         1 JS7       0.064700
     39 H24A         0.2070     0.3770     0.7720 hc         1 JS7       0.064700
@<TRIPOS>BOND
     1     1     2 ar  
     2     1     6 ar  
     3     2     3 ar  
     4     2    25 1   
     5     3     4 ar  
     6     4     5 ar  
     7     4     7 1   
     8     5     6 ar  
     9     5    18 1   
    10     6    21 1   
    11     7    23 1   
    12     7    26 1   
    13     8     9 ar  
    14     8    13 ar  
    15     8    24 1   
    16     9    10 ar  
    17     9    27 1   
    18    10    11 ar  
    19    10    28 1   
    20    11    12 ar  
    21    11    14 1   
    22    12    13 ar  
    23    12    29 1   
    24    13    30 1   
    25    14    15 2   
    26    14    16 2   
    27    14    17 1   
    28    17    31 1   
    29    17    32 1   
    30    18    19 1   
    31    18    20 1   
    32    21    22 1   
    33    22    33 1   
    34    22    34 1   
    35    22    35 1   
    36    23    24 1   
    37    23    36 1   
    38    23    37 1   
    39    24    38 1   
    40    24    39 1   
@<TRIPOS>SUBSTRUCTURE
     1 JS7         1 TEMP              0 ****  ****    0 ROOT
