@<TRIPOS>MOLECULE
JS7
   39    40     1     0     0
SMALL
abcg2


@<TRIPOS>ATOM
      1 N1           4.4710    -1.5870     0.9930 nb         1 JS7      -0.330000
      2 C2           3.1560    -1.7340     0.9360 ca         1 JS7       0.248900
      3 N3           2.3050    -1.0380     0.2310 nb         1 JS7      -0.304000
      4 C4           2.7870    -0.0580    -0.5560 ca         1 JS7       0.461900
      5 C5           4.1990     0.1600    -0.6110 ca         1 JS7      -0.423200
      6 C6           5.0010    -0.6530     0.2270 ca         1 JS7       0.452300
      7 N7           1.8890     0.6230    -1.2560 nu         1 JS7      -0.886100
      8 C8          -1.6730     0.7080     0.0250 ca         1 JS7      -0.026300
      9 C9          -2.1370    -0.4310     0.6760 ca         1 JS7      -0.129000
     10 C10         -3.4830    -0.7620     0.6660 ca         1 JS7      -0.006500
     11 C11         -4.3730     0.0600    -0.0080 ca         1 JS7      -0.273500
     12 C12         -3.9360     1.2000    -0.6710 ca         1 JS7      -0.006500
     13 C13         -2.5900     1.5160    -0.6490 ca         1 JS7      -0.129000
     14 S14         -6.0910    -0.3500    -0.0520 sy         1 JS7       1.122600
     15 O15         -6.6230    -0.0870    -1.3830 o          1 JS7      -0.542000
     16 O16         -6.2470    -1.6920     0.4960 o          1 JS7      -0.542000
     17 N17         -6.7240     0.8250     0.9220 n8         1 JS7      -1.001100
     18 N18          4.7740     1.1380    -1.4680 no         1 JS7       0.732200
     19 O19          4.0390     1.9880    -1.9480 o          1 JS7      -0.419500
     20 O20          5.9590     1.1060    -1.7070 o          1 JS7      -0.419500
     21 O21          6.2940    -0.4670     0.2740 os         1 JS7      -0.412300
     22 C22          7.0740    -1.2750     1.1600 c3         1 JS7       0.160900
     23 C23          0.4660     0.3620    -1.2010 c3         1 JS7       0.230800
     24 C24         -0.2080     1.0260     0.0040 c3         1 JS7      -0.063100
     25 H2           2.7370    -2.5190     1.5560 h5         1 JS7       0.054100
     26 HN7          2.2090     1.4070    -1.7990 hn         1 JS7       0.541000
     27 H9          -1.4400    -1.0690     1.2060 ha         1 JS7       0.121500
     28 H10         -3.8240    -1.6510     1.1790 ha         1 JS7       0.138500
     29 H12         -4.6320     1.8410    -1.1970 ha         1 JS7       0.138500
     30 H13         -2.2470     2.4080    -1.1590 ha         1 JS7       0.121500
     31 HN17        -7.7290     0.9060     0.7980 hn         1 JS7       0.473000
     32 HN1A        -6.5030     0.6830     1.9020 hn         1 JS7       0.473000
     33 H22          8.1010    -0.9620     1.0000 h1         1 JS7       0.058700
     34 H22A         6.7950    -1.1060     2.1990 h1         1 JS7       0.058700
     35 H22B         6.9720    -2.3330     0.9270 h1         1 JS7       0.058700
     36 H23          0.0400     0.7500    -2.1260 h1         1 JS7       0.069200
     37 H23A         0.2910    -0.7120    -1.1840 h1         1 JS7       0.069200
     38 H24         -0.0540     2.1060    -0.0460 hc         1 JS7       0.064700
     39 H24A         0.2650     0.6680     0.9190 hc         1 JS7       0.064700
@<TRIPOS>BOND
     1     1     2 ar  
     2     1     6 ar  
     3     2     3 ar  
     4     2    25 1   
     5     3     4 ar  
     6     4     5 ar  
     7     4     7 1   
     8     5     6 ar  
     9     5    18 1   
    10     6    21 1   
    11     7    23 1   
    12     7    26 1   
    13     8     9 ar  
    14     8    13 ar  
    15     8    24 1   
    16     9    10 ar  
    17     9    27 1   
    18    10    11 ar  
    19    10    28 1   
    20    11    12 ar  
    21    11    14 1   
    22    12    13 ar  
    23    12    29 1   
    24    13    30 1   
    25    14    15 2   
    26    14    16 2   
    27    14    17 1   
    28    17    31 1   
    29    17    32 1   
    30    18    19 1   
    31    18    20 1   
    32    21    22 1   
    33    22    33 1   
    34    22    34 1   
    35    22    35 1   
    36    23    24 1   
    37    23    36 1   
    38    23    37 1   
    39    24    38 1   
    40    24    39 1   
@<TRIPOS>SUBSTRUCTURE
     1 JS7         1 TEMP              0 ****  ****    0 ROOT
