@<TRIPOS>MOLECULE
JS9
   75    79     1     0     0
SMALL
No Charge or Current Charge


@<TRIPOS>ATOM
      1 C10         -6.2700   -15.1410    19.1120 ca         1 JS9      -0.128600
      2 C13         -4.8130   -15.7750    16.7640 ca         1 JS9      -0.066300
      3 C15         -3.4580   -14.8190    14.8440 c3         1 JS9       0.080600
      4 C17         -3.1970   -15.2760    12.3510 cc         1 JS9      -0.202000
      5 C21         -2.0100   -15.7650    10.1530 ca         1 JS9      -0.158500
      6 C22         -0.7800   -15.9820     9.5000 ca         1 JS9      -0.052000
      7 C24         -2.0170   -16.2670     7.4130 cp         1 JS9       0.415500
      8 C26         -3.1840   -15.7990     9.3770 ca         1 JS9       0.342900
      9 C28         -1.3230   -17.4950     5.2790 ca         1 JS9       0.122100
     10 C01         -4.0550   -11.9560    19.9930 c3         1 JS9       0.144900
     11 O02         -5.4300   -11.7930    19.6130 os         1 JS9      -0.453000
     12 C03         -6.3290   -11.5620    20.7110 c3         1 JS9       0.188600
     13 C04         -7.7510   -11.4850    20.1460 cx         1 JS9      -0.143000
     14 C05         -8.1740   -12.7880    19.4510 c3         1 JS9       0.140000
     15 N06         -8.1620   -13.9880    20.3310 n          1 JS9      -0.400800
     16 C07         -9.0870   -13.9480    21.4860 c3         1 JS9       0.083300
     17 C08         -7.0270   -14.8320    20.3870 c          1 JS9       0.613700
     18 O09         -6.7130   -15.3840    21.4360 o          1 JS9      -0.593100
     19 C11         -4.8860   -15.4080    19.1740 ca         1 JS9      -0.065500
     20 C12         -4.1620   -15.7120    18.0090 ca         1 JS9      -0.117000
     21 C14         -4.0260   -16.0930    15.5010 c3         1 JS9      -0.053100
     22 N16         -2.6970   -15.0930    13.6160 na         1 JS9       0.126800
     23 C18         -2.0780   -15.5030    11.6000 cd         1 JS9       0.260500
     24 N19         -0.9640   -15.4500    12.4140 nd         1 JS9      -0.352000
     25 N20         -1.3400   -15.2020    13.6410 nc         1 JS9      -0.201800
     26 C23         -0.7890   -16.2270     8.1190 ca         1 JS9      -0.134000
     27 N25         -3.1900   -16.0340     8.0450 nb         1 JS9      -0.676000
     28 C27         -2.0890   -16.4880     5.9300 cp         1 JS9      -0.142500
     29 C30          0.2640   -19.3750     5.5320 c3         1 JS9       0.148900
     30 C31         -1.4040   -17.6700     3.8800 ca         1 JS9      -0.167000
     31 C32         -2.2510   -16.8510     3.1160 ca         1 JS9      -0.099000
     32 C33         -3.0270   -15.8590     3.7320 ca         1 JS9       0.097100
     33 O34         -3.8440   -15.0880     2.9280 os         1 JS9      -0.342100
     34 C35         -4.6830   -14.0460     3.4580 c3         1 JS9       0.147900
     35 C36         -2.9460   -15.6820     5.1300 ca         1 JS9      -0.126000
     36 C37         -6.1980   -15.5410    16.6980 ca         1 JS9      -0.117000
     37 C38         -6.9240   -15.2350    17.8620 ca         1 JS9      -0.065500
     38 C39         -8.7900   -10.6540    20.8750 cx         1 JS9      -0.117400
     39 C40         -8.2240   -10.1690    19.5620 cx         1 JS9      -0.117400
     40 H1          -2.8040   -14.3010    15.5570 h1         1 JS9       0.077700
     41 H2          -4.2830   -14.1390    14.5950 h1         1 JS9       0.077700
     42 H3          -4.2490   -15.2330    12.1060 h4         1 JS9       0.169000
     43 H4           0.1630   -15.9560    10.0430 ha         1 JS9       0.139000
     44 H5          -4.1610   -15.6290     9.8270 h4         1 JS9       0.010100
     45 H6          -3.4340   -12.1400    19.1070 h1         1 JS9       0.029700
     46 H7          -3.6790   -11.0540    20.4940 h1         1 JS9       0.029700
     47 H8          -3.9370   -12.8070    20.6760 h1         1 JS9       0.029700
     48 H9          -6.2630   -12.3700    21.4510 h1         1 JS9       0.028700
     49 H10         -6.0780   -10.6210    21.2190 h1         1 JS9       0.028700
     50 H11         -9.1910   -12.6710    19.0520 h1         1 JS9       0.060700
     51 H12         -7.5190   -12.9300    18.5850 h1         1 JS9       0.060700
     52 H13         -9.3240   -14.9690    21.8100 h1         1 JS9       0.042033
     53 H14         -8.6210   -13.4040    22.3170 h1         1 JS9       0.042033
     54 H15        -10.0220   -13.4460    21.2040 h1         1 JS9       0.042033
     55 H16         -4.3650   -15.3650    20.1280 ha         1 JS9       0.123500
     56 H17         -3.0930   -15.8980    18.0760 ha         1 JS9       0.114000
     57 H18         -4.6640   -16.6170    14.7780 hc         1 JS9       0.062700
     58 H19         -3.1990   -16.7770    15.7320 hc         1 JS9       0.062700
     59 H20          0.1470   -16.3740     7.5890 ha         1 JS9       0.134000
     60 H21          0.8050   -19.8870     6.3360 h1         1 JS9       0.040033
     61 H22         -0.3650   -20.1140     5.0200 h1         1 JS9       0.040033
     62 H23          1.0020   -18.9860     4.8190 h1         1 JS9       0.040033
     63 H24         -0.8270   -18.4360     3.3710 ha         1 JS9       0.119000
     64 H25         -2.3110   -16.9890     2.0390 ha         1 JS9       0.126000
     65 H26         -5.2470   -13.5650     2.6490 h1         1 JS9       0.040033
     66 H27         -5.4040   -14.4530     4.1790 h1         1 JS9       0.040033
     67 H28         -4.0820   -13.2760     3.9570 h1         1 JS9       0.040033
     68 H29         -3.5360   -14.9130     5.6200 ha         1 JS9       0.132000
     69 H30         -6.7170   -15.5980    15.7440 ha         1 JS9       0.114000
     70 H31         -7.9990   -15.0820    17.7900 ha         1 JS9       0.123500
     71 H32         -8.4860   -10.1340    21.7800 hc         1 JS9       0.075200
     72 H33         -9.8200   -11.0020    20.8790 hc         1 JS9       0.075200
     73 H34         -7.5410    -9.3230    19.5870 hc         1 JS9       0.075200
     74 H35         -8.8730   -10.1980    18.6900 hc         1 JS9       0.075200
     75 O29         -0.5370   -18.3080     6.0720 os         1 JS9      -0.341100
@<TRIPOS>BOND
     1     1    17 1   
     2     1    19 ar  
     3     1    37 ar  
     4     2    20 ar  
     5     2    21 1   
     6     2    36 ar  
     7     3    21 1   
     8     3    22 1   
     9     3    40 1   
    10     3    41 1   
    11     4    22 1   
    12     4    23 2   
    13     4    42 1   
    14     5     6 ar  
    15     5     8 ar  
    16     5    23 1   
    17     6    26 ar  
    18     6    43 1   
    19     7    26 ar  
    20     7    27 ar  
    21     7    28 1   
    22     8    27 ar  
    23     8    44 1   
    24     9    28 ar  
    25     9    30 ar  
    26     9    75 1   
    27    10    11 1   
    28    10    45 1   
    29    10    46 1   
    30    10    47 1   
    31    11    12 1   
    32    12    13 1   
    33    12    48 1   
    34    12    49 1   
    35    13    14 1   
    36    13    38 1   
    37    13    39 1   
    38    14    15 1   
    39    14    50 1   
    40    14    51 1   
    41    15    16 1   
    42    15    17 1   
    43    16    52 1   
    44    16    53 1   
    45    16    54 1   
    46    17    18 2   
    47    19    20 ar  
    48    19    55 1   
    49    20    56 1   
    50    21    57 1   
    51    21    58 1   
    52    22    25 1   
    53    23    24 1   
    54    24    25 2   
    55    26    59 1   
    56    28    35 ar  
    57    29    60 1   
    58    29    61 1   
    59    29    62 1   
    60    29    75 1   
    61    30    31 ar  
    62    30    63 1   
    63    31    32 ar  
    64    31    64 1   
    65    32    33 1   
    66    32    35 ar  
    67    33    34 1   
    68    34    65 1   
    69    34    66 1   
    70    34    67 1   
    71    35    68 1   
    72    36    37 ar  
    73    36    69 1   
    74    37    70 1   
    75    38    39 1   
    76    38    71 1   
    77    38    72 1   
    78    39    73 1   
    79    39    74 1   
@<TRIPOS>SUBSTRUCTURE
     1 JS9         1 TEMP              0 ****  ****    0 ROOT
