@<TRIPOS>MOLECULE
JS9
   75    79     1     0     0
SMALL
abcg2


@<TRIPOS>ATOM
      1 C10         -6.2950   -14.9390    18.7610 ca         1 JS9      -0.128600
      2 C13         -4.9640   -15.1360    16.2960 ca         1 JS9      -0.066300
      3 C15         -2.8200   -15.0130    14.9450 c3         1 JS9       0.080600
      4 C17         -2.8260   -15.4160    12.4420 cc         1 JS9      -0.202000
      5 C21         -1.7930   -15.7610    10.1190 ca         1 JS9      -0.158500
      6 C22         -0.6240   -16.0550     9.4190 ca         1 JS9      -0.052000
      7 C24         -1.9310   -16.3320     7.4320 cp         1 JS9       0.415500
      8 C26         -2.9760   -15.7450     9.3840 ca         1 JS9       0.342900
      9 C28         -1.4500   -17.6910     5.3650 ca         1 JS9       0.122100
     10 C01         -4.2700   -11.6780    20.3090 c3         1 JS9       0.144900
     11 O02         -5.5940   -11.6520    19.8490 os         1 JS9      -0.453000
     12 C03         -6.5310   -11.5800    20.8940 c3         1 JS9       0.188600
     13 C04         -7.9190   -11.6500    20.3240 cx         1 JS9      -0.143000
     14 C05         -8.2460   -12.9060    19.5400 c3         1 JS9       0.140000
     15 N06         -8.0130   -14.1220    20.2990 n          1 JS9      -0.400800
     16 C07         -8.7730   -14.2630    21.5260 c3         1 JS9       0.083300
     17 C08         -6.9650   -14.9510    20.0980 c          1 JS9       0.613700
     18 O09         -6.5820   -15.7460    20.9470 o          1 JS9      -0.593100
     19 C11         -4.9110   -14.8620    18.6970 ca         1 JS9      -0.065500
     20 C12         -4.2540   -14.9410    17.4770 ca         1 JS9      -0.117000
     21 C14         -4.3150   -15.2640    14.9410 c3         1 JS9      -0.053100
     22 N16         -2.2360   -15.1700    13.6210 na         1 JS9       0.126800
     23 C18         -1.7800   -15.4850    11.5490 cd         1 JS9       0.260500
     24 N19         -0.6390   -15.2780    12.2440 nd         1 JS9      -0.352000
     25 N20         -0.9240   -15.0900    13.4830 nc         1 JS9      -0.201800
     26 C23         -0.6910   -16.3430     8.0710 ca         1 JS9      -0.134000
     27 N25         -3.0450   -16.0200     8.0920 nb         1 JS9      -0.676000
     28 C27         -2.0780   -16.6040     5.9840 cp         1 JS9      -0.142500
     29 C30         -0.0970   -19.6340     5.5660 c3         1 JS9       0.148900
     30 C31         -1.6300   -17.8880     3.9970 ca         1 JS9      -0.167000
     31 C32         -2.4220   -17.0280     3.2560 ca         1 JS9      -0.099000
     32 C33         -3.0630   -15.9530     3.8650 ca         1 JS9       0.097100
     33 O34         -3.8180   -15.1650     3.0680 os         1 JS9      -0.342100
     34 C35         -4.4780   -14.0620     3.6500 c3         1 JS9       0.147900
     35 C36         -2.8900   -15.7580     5.2300 ca         1 JS9      -0.126000
     36 C37         -6.3530   -15.2350    16.3720 ca         1 JS9      -0.117000
     37 C38         -7.0130   -15.1320    17.5830 ca         1 JS9      -0.065500
     38 C39         -9.0090   -10.9780    21.1060 cx         1 JS9      -0.117400
     39 C40         -8.5300   -10.3760    19.8210 cx         1 JS9      -0.117400
     40 H1          -2.3090   -15.7160    15.6040 h1         1 JS9       0.077700
     41 H2          -2.5990   -14.0040    15.2940 h1         1 JS9       0.077700
     42 H3          -3.8890   -15.5320    12.3190 h4         1 JS9       0.169000
     43 H4           0.3310   -16.0630     9.9280 ha         1 JS9       0.139000
     44 H5          -3.9160   -15.4940     9.8650 h4         1 JS9       0.010100
     45 H6          -3.6130   -11.7720    19.4450 h1         1 JS9       0.029700
     46 H7          -4.0030   -10.7610    20.8490 h1         1 JS9       0.029700
     47 H8          -4.0820   -12.5270    20.9780 h1         1 JS9       0.029700
     48 H9          -6.3680   -12.3990    21.6120 h1         1 JS9       0.028700
     49 H10         -6.4140   -10.6450    21.4630 h1         1 JS9       0.028700
     50 H11         -9.2930   -12.8760    19.2260 h1         1 JS9       0.060700
     51 H12         -7.6460   -12.9270    18.6350 h1         1 JS9       0.060700
     52 H13         -8.8760   -15.3120    21.7920 h1         1 JS9       0.042033
     53 H14         -8.3130   -13.7380    22.3660 h1         1 JS9       0.042033
     54 H15         -9.7680   -13.8510    21.3720 h1         1 JS9       0.042033
     55 H16         -4.3330   -14.7260    19.6020 ha         1 JS9       0.123500
     56 H17         -3.1760   -14.8560    17.4710 ha         1 JS9       0.114000
     57 H18         -4.8040   -14.5640    14.2580 hc         1 JS9       0.062700
     58 H19         -4.5180   -16.2670    14.5540 hc         1 JS9       0.062700
     59 H20          0.2130   -16.5600     7.5200 ha         1 JS9       0.134000
     60 H21          0.4140   -20.1560     6.3720 h1         1 JS9       0.040033
     61 H22         -0.8210   -20.3160     5.1120 h1         1 JS9       0.040033
     62 H23          0.6410   -19.3500     4.8110 h1         1 JS9       0.040033
     63 H24         -1.1620   -18.7190     3.4880 ha         1 JS9       0.119000
     64 H25         -2.5450   -17.1950     2.1930 ha         1 JS9       0.126000
     65 H26         -5.0110   -13.5600     2.8450 h1         1 JS9       0.040033
     66 H27         -5.2010   -14.3670     4.4110 h1         1 JS9       0.040033
     67 H28         -3.7760   -13.3530     4.0990 h1         1 JS9       0.040033
     68 H29         -3.3720   -14.9350     5.7410 ha         1 JS9       0.132000
     69 H30         -6.9270   -15.3960    15.4660 ha         1 JS9       0.114000
     70 H31         -8.0930   -15.2120    17.6110 ha         1 JS9       0.123500
     71 H32         -8.7450   -10.4860    22.0340 hc         1 JS9       0.075200
     72 H33         -9.9870   -11.4430    21.1160 hc         1 JS9       0.075200
     73 H34         -7.9330    -9.4740    19.8640 hc         1 JS9       0.075200
     74 H35         -9.1830   -10.4320    18.9580 hc         1 JS9       0.075200
     75 O29         -0.7210   -18.5120     6.1510 os         1 JS9      -0.341100
@<TRIPOS>BOND
     1     1    17 1   
     2     1    19 ar  
     3     1    37 ar  
     4     2    20 ar  
     5     2    21 1   
     6     2    36 ar  
     7     3    21 1   
     8     3    22 1   
     9     3    40 1   
    10     3    41 1   
    11     4    22 1   
    12     4    23 2   
    13     4    42 1   
    14     5     6 ar  
    15     5     8 ar  
    16     5    23 1   
    17     6    26 ar  
    18     6    43 1   
    19     7    26 ar  
    20     7    27 ar  
    21     7    28 1   
    22     8    27 ar  
    23     8    44 1   
    24     9    28 ar  
    25     9    30 ar  
    26     9    75 1   
    27    10    11 1   
    28    10    45 1   
    29    10    46 1   
    30    10    47 1   
    31    11    12 1   
    32    12    13 1   
    33    12    48 1   
    34    12    49 1   
    35    13    14 1   
    36    13    38 1   
    37    13    39 1   
    38    14    15 1   
    39    14    50 1   
    40    14    51 1   
    41    15    16 1   
    42    15    17 1   
    43    16    52 1   
    44    16    53 1   
    45    16    54 1   
    46    17    18 2   
    47    19    20 ar  
    48    19    55 1   
    49    20    56 1   
    50    21    57 1   
    51    21    58 1   
    52    22    25 1   
    53    23    24 1   
    54    24    25 2   
    55    26    59 1   
    56    28    35 ar  
    57    29    60 1   
    58    29    61 1   
    59    29    62 1   
    60    29    75 1   
    61    30    31 ar  
    62    30    63 1   
    63    31    32 ar  
    64    31    64 1   
    65    32    33 1   
    66    32    35 ar  
    67    33    34 1   
    68    34    65 1   
    69    34    66 1   
    70    34    67 1   
    71    35    68 1   
    72    36    37 ar  
    73    36    69 1   
    74    37    70 1   
    75    38    39 1   
    76    38    71 1   
    77    38    72 1   
    78    39    73 1   
    79    39    74 1   
@<TRIPOS>SUBSTRUCTURE
     1 JS9         1 TEMP              0 ****  ****    0 ROOT
