@<TRIPOS>MOLECULE
JSA
   74    76     1     0     0
SMALL
abcg2


@<TRIPOS>ATOM
      1 C4          -0.1740    33.0750   -33.8520 ca         1 JSA       0.121500
      2 C5          -1.5580    32.9310   -33.9290 ca         1 JSA      -0.094600
      3 C6          -2.0360    31.7920   -34.6060 ca         1 JSA       0.448900
      4 N9           0.0320    34.2470   -33.1610 na         1 JSA      -0.323300
      5 C2           0.1710    31.1920   -34.9620 ca         1 JSA       0.180900
      6 C12        -11.4070    40.7050   -41.7670 c3         1 JSA      -0.088100
      7 C11        -11.1170    39.6540   -40.6970 c3         1 JSA      -0.075400
      8 C10         -9.7550    39.8370   -40.0310 c3         1 JSA      -0.075400
      9 C9          -9.4510    38.7880   -38.9640 c3         1 JSA      -0.074400
     10 C8          -8.0940    38.9800   -38.2920 c3         1 JSA      -0.074400
     11 C7          -7.7690    37.9040   -37.2580 c3         1 JSA      -0.075400
     12 C15         -6.4220    38.1110   -36.5670 c3         1 JSA      -0.076400
     13 C14         -6.0560    36.9760   -35.6110 c3         1 JSA      -0.072400
     14 C13         -4.7120    37.1550   -34.9030 c3         1 JSA      -0.076400
     15 C16         -3.3500    38.3790   -33.1540 c3         1 JSA      -0.117400
     16 C1          -3.3490    39.3950   -32.0200 c3         1 JSA       0.462500
     17 O1          -4.2410    39.0590   -30.9770 oh         1 JSA      -0.662000
     18 N8          -1.9840    39.6930   -31.5260 n7         1 JSA      -0.988300
     19 S1          -1.1200    38.6750   -30.6020 s6         1 JSA       1.448800
     20 O2P         -1.7320    37.3760   -30.6950 o          1 JSA      -0.564000
     21 O1P         -0.8430    39.2370   -29.3120 o          1 JSA      -0.564000
     22 O5           0.3080    38.6380   -31.2910 os         1 JSA      -0.558700
     23 C4A          1.4860    37.1530   -32.7890 c5         1 JSA       0.114300
     24 O4           1.1410    35.9770   -32.0290 os         1 JSA      -0.432000
     25 C3A          1.6590    36.6620   -34.2360 c5         1 JSA       0.146300
     26 O3           2.5460    37.4410   -35.0080 oh         1 JSA      -0.675000
     27 C2A          2.1560    35.2330   -34.0290 c5         1 JSA       0.138300
     28 O2           3.5360    35.2730   -33.7110 oh         1 JSA      -0.689000
     29 C1A          1.3380    34.8120   -32.7980 c5         1 JSA       0.286300
     30 C17         -1.2150    34.7360   -32.8430 cc         1 JSA       0.420700
     31 N7          -2.1910    33.9800   -33.2890 nd         1 JSA      -0.561100
     32 N3           0.7390    32.2300   -34.3500 nb         1 JSA      -0.237000
     33 N1          -1.1320    30.9330   -35.1170 nb         1 JSA      -0.297000
     34 N6          -3.3430    31.5290   -34.7560 nv         1 JSA      -1.067900
     35 H1           0.8480    30.4620   -35.3910 h5         1 JSA       0.047100
     36 H2         -12.3860    40.5510   -42.2260 hc         1 JSA       0.031700
     37 H3         -11.3920    41.7120   -41.3410 hc         1 JSA       0.031700
     38 H4         -10.6560    40.6710   -42.5610 hc         1 JSA       0.031700
     39 H5         -11.8990    39.6870   -39.9310 hc         1 JSA       0.036700
     40 H6         -11.1670    38.6550   -41.1430 hc         1 JSA       0.036700
     41 H7          -8.9730    39.8090   -40.7980 hc         1 JSA       0.036700
     42 H8          -9.7070    40.8360   -39.5810 hc         1 JSA       0.036700
     43 H9         -10.2380    38.8100   -38.2020 hc         1 JSA       0.037200
     44 H10         -9.4910    37.7910   -39.4180 hc         1 JSA       0.037200
     45 H11         -7.3090    38.9870   -39.0580 hc         1 JSA       0.036700
     46 H12         -8.0640    39.9650   -37.8130 hc         1 JSA       0.036700
     47 H13         -8.5620    37.8770   -36.5010 hc         1 JSA       0.037700
     48 H14         -7.7770    36.9230   -37.7450 hc         1 JSA       0.037700
     49 H15         -5.6370    38.2000   -37.3270 hc         1 JSA       0.036700
     50 H16         -6.4390    39.0640   -36.0300 hc         1 JSA       0.036700
     51 H17         -6.8460    36.8630   -34.8600 hc         1 JSA       0.040200
     52 H18         -6.0370    36.0390   -36.1780 hc         1 JSA       0.040200
     53 H19         -4.4270    36.2110   -34.4280 hc         1 JSA       0.043200
     54 H20         -3.9360    37.3700   -35.6470 hc         1 JSA       0.043200
     55 H21         -4.9850    39.2120   -34.2760 hc         1 JSA       0.048700
     56 H22         -5.4740    38.0170   -33.0880 hc         1 JSA       0.048700
     57 H23         -3.0400    37.4060   -32.7670 hc         1 JSA       0.057700
     58 H24         -2.6000    38.6900   -33.8840 hc         1 JSA       0.057700
     59 H25         -3.6900    40.3590   -32.3960 h2         1 JSA       0.082700
     60 H26         -4.1010    38.1310   -30.7410 ho         1 JSA       0.467000
     61 H27         -1.8350    40.6580   -31.2570 hn         1 JSA       0.500000
     62 H28          0.6450    39.0620   -33.2770 h1         1 JSA       0.056700
     63 H29         -0.5510    37.7800   -32.9990 h1         1 JSA       0.056700
     64 H30          2.4330    37.5480   -32.4150 h1         1 JSA       0.112700
     65 H31          0.6780    36.6050   -34.7180 h1         1 JSA       0.045700
     66 H32          2.0380    38.1250   -35.4620 ho         1 JSA       0.505000
     67 H33          1.9620    34.5930   -34.8890 h1         1 JSA       0.088700
     68 H34          3.8640    34.3660   -33.6600 ho         1 JSA       0.516000
     69 H35          1.8730    34.0700   -32.2040 h2         1 JSA       0.107700
     70 H36         -1.3340    35.6390   -32.2690 h5         1 JSA       0.096800
     71 H37         -3.6360    30.7120   -35.2660 hn         1 JSA       0.509000
     72 H38         -4.0400    32.1640   -34.4060 hn         1 JSA       0.509000
     73 C5A          0.4010    38.1890   -32.6720 c3         1 JSA       0.203600
     74 C3          -4.7100    38.2490   -33.8350 c3         1 JSA      -0.070400
@<TRIPOS>BOND
     1     1     2 ar  
     2     1     4 1   
     3     1    32 ar  
     4     2     3 ar  
     5     2    31 1   
     6     3    33 ar  
     7     3    34 1   
     8     4    29 1   
     9     4    30 1   
    10     5    32 ar  
    11     5    33 ar  
    12     5    35 1   
    13     6     7 1   
    14     6    36 1   
    15     6    37 1   
    16     6    38 1   
    17     7     8 1   
    18     7    39 1   
    19     7    40 1   
    20     8     9 1   
    21     8    41 1   
    22     8    42 1   
    23     9    10 1   
    24     9    43 1   
    25     9    44 1   
    26    10    11 1   
    27    10    45 1   
    28    10    46 1   
    29    11    12 1   
    30    11    47 1   
    31    11    48 1   
    32    12    13 1   
    33    12    49 1   
    34    12    50 1   
    35    13    14 1   
    36    13    51 1   
    37    13    52 1   
    38    14    53 1   
    39    14    54 1   
    40    14    74 1   
    41    15    16 1   
    42    15    57 1   
    43    15    58 1   
    44    15    74 1   
    45    16    17 1   
    46    16    18 1   
    47    16    59 1   
    48    17    60 1   
    49    18    19 1   
    50    18    61 1   
    51    19    20 2   
    52    19    21 2   
    53    19    22 1   
    54    22    73 1   
    55    23    24 1   
    56    23    25 1   
    57    23    64 1   
    58    23    73 1   
    59    24    29 1   
    60    25    26 1   
    61    25    27 1   
    62    25    65 1   
    63    26    66 1   
    64    27    28 1   
    65    27    29 1   
    66    27    67 1   
    67    28    68 1   
    68    29    69 1   
    69    30    31 2   
    70    30    70 1   
    71    34    71 1   
    72    34    72 1   
    73    55    74 1   
    74    56    74 1   
    75    62    73 1   
    76    63    73 1   
@<TRIPOS>SUBSTRUCTURE
     1 JSA         1 TEMP              0 ****  ****    0 ROOT
