@<TRIPOS>MOLECULE
JSA
   74    76     1     0     0
SMALL
No Charge or Current Charge


@<TRIPOS>ATOM
      1 C4          -0.3660    33.2460   -33.3790 ca         1 JSA       0.121500
      2 C5          -0.6690    31.9070   -33.4100 ca         1 JSA      -0.094600
      3 C6          -1.9840    31.5270   -33.7540 ca         1 JSA       0.448900
      4 N9           0.9570    33.3110   -33.0200 na         1 JSA      -0.323300
      5 C2          -2.5240    33.7380   -33.9760 ca         1 JSA       0.180900
      6 C12        -11.2520    40.8900   -42.2160 c3         1 JSA      -0.088100
      7 C11        -11.0150    39.8220   -41.1310 c3         1 JSA      -0.075400
      8 C10         -9.6810    40.0130   -40.3760 c3         1 JSA      -0.075400
      9 C9          -9.4440    38.9420   -39.2880 c3         1 JSA      -0.074400
     10 C8          -8.1110    39.1330   -38.5330 c3         1 JSA      -0.074400
     11 C7          -7.8740    38.0630   -37.4450 c3         1 JSA      -0.075400
     12 C15         -6.5400    38.2530   -36.6900 c3         1 JSA      -0.076400
     13 C14         -6.3070    37.1820   -35.5990 c3         1 JSA      -0.072400
     14 C13         -4.9400    37.2860   -34.8800 c3         1 JSA      -0.076400
     15 C16         -3.4060    38.5910   -33.2730 c3         1 JSA      -0.117400
     16 C1          -3.1850    39.8690   -32.4280 c3         1 JSA       0.462500
     17 O1          -4.1030    39.9520   -31.3680 oh         1 JSA      -0.662000
     18 N8          -1.8560    39.9610   -31.8720 n7         1 JSA      -0.988300
     19 S1          -1.3200    39.0150   -30.6290 s6         1 JSA       1.448800
     20 O2P         -2.3580    38.0190   -30.3550 o          1 JSA      -0.564000
     21 O1P         -0.9120    39.9620   -29.5940 o          1 JSA      -0.564000
     22 O5           0.0040    38.2830   -31.2510 os         1 JSA      -0.558700
     23 C4A          1.0970    36.7550   -32.7840 c5         1 JSA       0.114300
     24 O4           1.0500    35.4920   -32.0750 os         1 JSA      -0.432000
     25 C3A          1.2550    36.3410   -34.2760 c5         1 JSA       0.146300
     26 O3           1.7510    37.3920   -35.1100 oh         1 JSA      -0.675000
     27 C2A          2.3100    35.2090   -34.1330 c5         1 JSA       0.138300
     28 O2           3.6330    35.7800   -33.9900 oh         1 JSA      -0.689000
     29 C1A          1.7950    34.5000   -32.8240 c5         1 JSA       0.286300
     30 C17          1.4020    31.9970   -32.8310 cc         1 JSA       0.420700
     31 N7           0.4240    31.1040   -33.0710 nd         1 JSA      -0.561100
     32 N3          -1.2870    34.1900   -33.6600 nb         1 JSA      -0.237000
     33 N1          -2.9220    32.4450   -34.0380 nb         1 JSA      -0.297000
     34 N6          -2.3820    30.2270   -33.8080 nv         1 JSA      -1.067900
     35 H1          -3.2750    34.4920   -34.2050 h5         1 JSA       0.047100
     36 H2         -12.2080    40.7140   -42.7230 hc         1 JSA       0.031700
     37 H3         -11.2770    41.8930   -41.7750 hc         1 JSA       0.031700
     38 H4         -10.4540    40.8620   -42.9690 hc         1 JSA       0.031700
     39 H5         -11.8460    39.8520   -40.4150 hc         1 JSA       0.036700
     40 H6         -11.0300    38.8300   -41.5980 hc         1 JSA       0.036700
     41 H7          -8.8530    39.9840   -41.0950 hc         1 JSA       0.036700
     42 H8          -9.6690    41.0070   -39.9120 hc         1 JSA       0.036700
     43 H9         -10.2720    38.9700   -38.5680 hc         1 JSA       0.037200
     44 H10         -9.4570    37.9480   -39.7520 hc         1 JSA       0.037200
     45 H11         -7.2820    39.1040   -39.2520 hc         1 JSA       0.036700
     46 H12         -8.0980    40.1270   -38.0690 hc         1 JSA       0.036700
     47 H13         -8.7020    38.0910   -36.7250 hc         1 JSA       0.037700
     48 H14         -7.8870    37.0690   -37.9090 hc         1 JSA       0.037700
     49 H15         -5.7120    38.2220   -37.4090 hc         1 JSA       0.036700
     50 H16         -6.5330    39.2510   -36.2340 hc         1 JSA       0.036700
     51 H17         -7.1110    37.2390   -34.8550 hc         1 JSA       0.040200
     52 H18         -6.3780    36.1890   -36.0600 hc         1 JSA       0.040200
     53 H19         -4.8300    36.4110   -34.2270 hc         1 JSA       0.043200
     54 H20         -4.1360    37.2240   -35.6240 hc         1 JSA       0.043200
     55 H21         -4.8180    39.4500   -34.6730 hc         1 JSA       0.048700
     56 H22         -5.5820    38.6350   -33.3080 hc         1 JSA       0.048700
     57 H23         -3.3380    37.6930   -32.6510 hc         1 JSA       0.057700
     58 H24         -2.6010    38.5260   -34.0140 hc         1 JSA       0.057700
     59 H25         -3.3550    40.7320   -33.0890 h2         1 JSA       0.082700
     60 H26         -4.0230    39.0890   -30.9060 ho         1 JSA       0.467000
     61 H27         -1.8490    40.8260   -31.3390 hn         1 JSA       0.500000
     62 H28         -0.3380    38.2860   -33.3130 h1         1 JSA       0.056700
     63 H29         -1.0380    36.8940   -32.4490 h1         1 JSA       0.056700
     64 H30          1.9750    37.3230   -32.4470 h1         1 JSA       0.112700
     65 H31          0.3100    35.9550   -34.6800 h1         1 JSA       0.045700
     66 H32          2.7340    37.3170   -35.0190 ho         1 JSA       0.505000
     67 H33          2.2710    34.5250   -34.9930 h1         1 JSA       0.088700
     68 H34          4.2880    35.0430   -34.0460 ho         1 JSA       0.516000
     69 H35          2.6540    34.1650   -32.2270 h2         1 JSA       0.107700
     70 H36          2.4190    31.7650   -32.5330 h5         1 JSA       0.096800
     71 H37         -3.3780    30.0320   -33.7610 hn         1 JSA       0.509000
     72 H38         -1.7620    29.5390   -33.3870 hn         1 JSA       0.509000
     73 C5A         -0.1790    37.5780   -32.4900 c3         1 JSA       0.203600
     74 C3          -4.7570    38.5650   -34.0280 c3         1 JSA      -0.070400
@<TRIPOS>BOND
     1     1     2 ar  
     2     1     4 1   
     3     1    32 ar  
     4     2     3 ar  
     5     2    31 1   
     6     3    33 ar  
     7     3    34 1   
     8     4    29 1   
     9     4    30 1   
    10     5    32 ar  
    11     5    33 ar  
    12     5    35 1   
    13     6     7 1   
    14     6    36 1   
    15     6    37 1   
    16     6    38 1   
    17     7     8 1   
    18     7    39 1   
    19     7    40 1   
    20     8     9 1   
    21     8    41 1   
    22     8    42 1   
    23     9    10 1   
    24     9    43 1   
    25     9    44 1   
    26    10    11 1   
    27    10    45 1   
    28    10    46 1   
    29    11    12 1   
    30    11    47 1   
    31    11    48 1   
    32    12    13 1   
    33    12    49 1   
    34    12    50 1   
    35    13    14 1   
    36    13    51 1   
    37    13    52 1   
    38    14    53 1   
    39    14    54 1   
    40    14    74 1   
    41    15    16 1   
    42    15    57 1   
    43    15    58 1   
    44    15    74 1   
    45    16    17 1   
    46    16    18 1   
    47    16    59 1   
    48    17    60 1   
    49    18    19 1   
    50    18    61 1   
    51    19    20 2   
    52    19    21 2   
    53    19    22 1   
    54    22    73 1   
    55    23    24 1   
    56    23    25 1   
    57    23    64 1   
    58    23    73 1   
    59    24    29 1   
    60    25    26 1   
    61    25    27 1   
    62    25    65 1   
    63    26    66 1   
    64    27    28 1   
    65    27    29 1   
    66    27    67 1   
    67    28    68 1   
    68    29    69 1   
    69    30    31 2   
    70    30    70 1   
    71    34    71 1   
    72    34    72 1   
    73    55    74 1   
    74    56    74 1   
    75    62    73 1   
    76    63    73 1   
@<TRIPOS>SUBSTRUCTURE
     1 JSA         1 TEMP              0 ****  ****    0 ROOT
