@<TRIPOS>MOLECULE
JSF
   43    46     1     0     0
SMALL
No Charge or Current Charge


@<TRIPOS>ATOM
      1 N3          13.8470    35.4040   -14.3550 nb         1 JSF      -0.689000
      2 C4          13.8370    36.7740   -14.4390 ca         1 JSF       0.290500
      3 C5          14.5440    37.4490   -15.4840 ca         1 JSF      -0.057300
      4 C6          15.2540    36.6790   -16.4270 ca         1 JSF      -0.090000
      5 C7          14.5750    38.9700   -15.6370 c3         1 JSF      -0.043800
      6 C13         11.1880    38.2050   -10.9160 cc         1 JSF      -0.213000
      7 C21          8.5460    34.9920    -6.8750 ca         1 JSF      -0.022800
      8 C22          8.3410    33.5950    -6.9330 ca         1 JSF      -0.086500
      9 C24          7.1600    33.6410    -4.8050 ca         1 JSF      -0.104000
     10 C26          8.0620    35.6970    -5.7490 ca         1 JSF      -0.086500
     11 C1          15.2450    35.2820   -16.3160 ca         1 JSF      -0.136000
     12 C2          14.5300    34.6850   -15.2700 ca         1 JSF       0.363300
     13 C9          13.0290    37.5170   -13.3510 c          1 JSF       0.529600
     14 O10         12.9270    38.7350   -13.2790 o          1 JSF      -0.578100
     15 N11         12.4220    36.6690   -12.4450 ns         1 JSF      -0.475400
     16 C12         11.6280    36.8870   -11.3510 cc         1 JSF       0.524900
     17 C14         10.3820    38.3980    -9.8030 cd         1 JSF      -0.054000
     18 N15         11.3130    35.7400   -10.7630 nd         1 JSF      -0.708000
     19 C16         10.5180    35.9890    -9.6650 cd         1 JSF       0.427500
     20 N17         10.0870    37.1950    -9.1840 na         1 JSF      -0.086400
     21 C18          9.2810    37.0480    -8.0840 cd         1 JSF      -0.272100
     22 C19          9.2960    35.6720    -7.9440 cc         1 JSF       0.140400
     23 N20         10.0420    35.0210    -8.9070 nc         1 JSF      -0.280600
     24 C23          7.6490    32.9260    -5.9090 ca         1 JSF      -0.118000
     25 C25          7.3700    35.0260    -4.7250 ca         1 JSF      -0.118000
     26 H1          15.8050    37.1530   -17.2370 ha         1 JSF       0.124000
     27 H2          15.0200    39.4490   -14.7560 hc         1 JSF       0.056033
     28 H3          15.1690    39.2810   -16.5040 hc         1 JSF       0.056033
     29 H4          13.5660    39.3760   -15.7790 hc         1 JSF       0.056033
     30 H5          13.4910    32.8400   -14.8000 hc         1 JSF       0.056700
     31 H6          14.7490    32.6650   -16.0310 hc         1 JSF       0.056700
     32 H7          15.2000    32.8590   -14.3280 hc         1 JSF       0.056700
     33 H8          11.4860    39.0800   -11.4730 ha         1 JSF       0.170000
     34 H9           8.7130    33.0200    -7.7780 ha         1 JSF       0.121500
     35 H10          6.6260    33.1230    -4.0120 ha         1 JSF       0.111000
     36 H11          8.2220    36.7670    -5.6520 ha         1 JSF       0.121500
     37 H12         15.7870    34.6690   -17.0310 ha         1 JSF       0.128000
     38 H13         12.6200    35.6960   -12.6410 hn         1 JSF       0.372500
     39 H14         10.0020    39.3330    -9.4070 h4         1 JSF       0.148000
     40 H15          8.7980    37.8550    -7.5440 h4         1 JSF       0.232000
     41 H16          7.4930    31.8510    -5.9710 ha         1 JSF       0.111500
     42 H17          7.0000    35.5820    -3.8660 ha         1 JSF       0.111500
     43 C8          14.4900    33.1800   -15.0990 c3         1 JSF      -0.148400
@<TRIPOS>BOND
     1     1     2 ar  
     2     1    12 ar  
     3     2     3 ar  
     4     2    13 1   
     5     3     4 ar  
     6     3     5 1   
     7     4    11 ar  
     8     4    26 1   
     9     5    27 1   
    10     5    28 1   
    11     5    29 1   
    12     6    16 1   
    13     6    17 2   
    14     6    33 1   
    15     7     8 ar  
    16     7    10 ar  
    17     7    22 1   
    18     8    24 ar  
    19     8    34 1   
    20     9    24 ar  
    21     9    25 ar  
    22     9    35 1   
    23    10    25 ar  
    24    10    36 1   
    25    11    12 ar  
    26    11    37 1   
    27    12    43 1   
    28    13    14 2   
    29    13    15 1   
    30    15    16 1   
    31    15    38 1   
    32    16    18 2   
    33    17    20 1   
    34    17    39 1   
    35    18    19 1   
    36    19    20 1   
    37    19    23 2   
    38    20    21 1   
    39    21    22 2   
    40    21    40 1   
    41    22    23 1   
    42    24    41 1   
    43    25    42 1   
    44    30    43 1   
    45    31    43 1   
    46    32    43 1   
@<TRIPOS>SUBSTRUCTURE
     1 JSF         1 TEMP              0 ****  ****    0 ROOT
