@<TRIPOS>MOLECULE
JSF
   43    46     1     0     0
SMALL
bcc


@<TRIPOS>ATOM
      1 N3          13.7540    35.4600   -14.3400 nb         1 JSF      -0.689000
      2 C4          13.8050    36.7900   -14.4290 ca         1 JSF       0.355800
      3 C5          14.5520    37.4620   -15.3990 ca         1 JSF      -0.122600
      4 C6          15.2540    36.6400   -16.2860 ca         1 JSF      -0.108000
      5 C7          14.6580    38.9490   -15.5560 c3         1 JSF      -0.043800
      6 C13         11.2370    38.2430   -11.0160 cc         1 JSF      -0.296300
      7 C21          8.5660    34.9930    -6.8810 ca         1 JSF      -0.022800
      8 C22          8.5550    33.5970    -6.8890 ca         1 JSF      -0.104500
      9 C24          7.2550    33.5630    -4.8620 ca         1 JSF      -0.122000
     10 C26          7.9100    35.6600    -5.8440 ca         1 JSF      -0.104500
     11 C1          15.1970    35.2670   -16.1890 ca         1 JSF      -0.219300
     12 C2          14.4210    34.6930   -15.1810 ca         1 JSF       0.428600
     13 C9          12.9970    37.5130   -13.3880 c          1 JSF       0.596600
     14 O10         12.9300    38.7240   -13.3230 o          1 JSF      -0.578100
     15 N11         12.3640    36.6590   -12.5340 ns         1 JSF      -0.542400
     16 C12         11.5840    36.9230   -11.4310 cc         1 JSF       0.590200
     17 C14         10.4730    38.3800    -9.9050 cd         1 JSF      -0.021300
     18 N15         11.1840    35.8540   -10.7910 nd         1 JSF      -0.708000
     19 C16         10.4310    36.0100    -9.7010 cd         1 JSF       0.427500
     20 N17         10.0710    37.2710    -9.2410 na         1 JSF      -0.137100
     21 C18          9.3160    37.0900    -8.1130 cd         1 JSF      -0.222100
     22 C19          9.2530    35.7280    -7.9430 cc         1 JSF       0.140400
     23 N20          9.9400    35.0750    -8.9250 nc         1 JSF      -0.280600
     24 C23          7.9050    32.8900    -5.8880 ca         1 JSF      -0.136000
     25 C25          7.2620    34.9530    -4.8450 ca         1 JSF      -0.136000
     26 H1          15.8540    37.0970   -17.0640 ha         1 JSF       0.142000
     27 H2          15.0720    39.4250   -14.6680 hc         1 JSF       0.056033
     28 H3          15.3100    39.1830   -16.3960 hc         1 JSF       0.056033
     29 H4          13.6900    39.4100   -15.7460 hc         1 JSF       0.056033
     30 H5          13.6880    32.9490   -14.1770 hc         1 JSF       0.056700
     31 H6          13.9020    32.7480   -15.9200 hc         1 JSF       0.056700
     32 H7          15.3060    32.7650   -14.8670 hc         1 JSF       0.056700
     33 H8          11.5640    39.1170   -11.5510 ha         1 JSF       0.188000
     34 H9           9.0570    33.0640    -7.6850 ha         1 JSF       0.139500
     35 H10          6.7500    33.0110    -4.0800 ha         1 JSF       0.129000
     36 H11          7.9040    36.7420    -5.8090 ha         1 JSF       0.139500
     37 H12         15.7460    34.6410   -16.8800 ha         1 JSF       0.146000
     38 H13         12.5310    35.6750   -12.7250 hn         1 JSF       0.372500
     39 H14         10.1610    39.3370    -9.5120 h4         1 JSF       0.166000
     40 H15          8.9110    37.9200    -7.5610 h4         1 JSF       0.182000
     41 H16          7.9070    31.8080    -5.9110 ha         1 JSF       0.129500
     42 H17          6.7610    35.4880    -4.0490 ha         1 JSF       0.129500
     43 C8          14.3210    33.2080   -15.0240 c3         1 JSF      -0.148400
@<TRIPOS>BOND
     1     1     2 ar  
     2     1    12 ar  
     3     2     3 ar  
     4     2    13 1   
     5     3     4 ar  
     6     3     5 1   
     7     4    11 ar  
     8     4    26 1   
     9     5    27 1   
    10     5    28 1   
    11     5    29 1   
    12     6    16 1   
    13     6    17 2   
    14     6    33 1   
    15     7     8 ar  
    16     7    10 ar  
    17     7    22 1   
    18     8    24 ar  
    19     8    34 1   
    20     9    24 ar  
    21     9    25 ar  
    22     9    35 1   
    23    10    25 ar  
    24    10    36 1   
    25    11    12 ar  
    26    11    37 1   
    27    12    43 1   
    28    13    14 2   
    29    13    15 1   
    30    15    16 1   
    31    15    38 1   
    32    16    18 2   
    33    17    20 1   
    34    17    39 1   
    35    18    19 1   
    36    19    20 1   
    37    19    23 2   
    38    20    21 1   
    39    21    22 2   
    40    21    40 1   
    41    22    23 1   
    42    24    41 1   
    43    25    42 1   
    44    30    43 1   
    45    31    43 1   
    46    32    43 1   
@<TRIPOS>SUBSTRUCTURE
     1 JSF         1 TEMP              0 ****  ****    0 ROOT
