@<TRIPOS>MOLECULE
JSI
   33    35     1     0     0
SMALL
No Charge or Current Charge


@<TRIPOS>ATOM
      1 N1          -0.1100    17.0100    28.2800 ns         1 JSI      -0.426400
      2 N3           3.1000    18.7300    27.6540 na         1 JSI      -0.081000
      3 C4           1.9130    17.9760    27.6730 cc         1 JSI      -0.315600
      4 C5           3.0310    17.6250    25.7590 cd         1 JSI      -0.208000
      5 C6           3.8060    18.5080    26.4610 cc         1 JSI      -0.100000
      6 C7           2.8750    18.5280    23.3800 ca         1 JSI      -0.137000
      7 C8           3.7380    19.5180    22.8480 ca         1 JSI       0.058200
      8 C10          1.7810    20.8020    22.1390 ca         1 JSI      -0.006900
      9 C13          5.2240    19.3830    22.9350 ce         1 JSI      -0.306200
     10 C1           0.8630    17.8620    28.6750 c          1 JSI       0.598600
     11 C2          -0.1050    16.3340    27.0820 cc         1 JSI       0.450800
     12 N2           0.8510    16.4280    26.1540 nd         1 JSI      -0.522100
     13 C3           1.8840    17.2950    26.4910 cd         1 JSI       0.162400
     14 S1           3.5220    17.0440    24.1620 ss         1 JSI       0.192000
     15 C9           3.1740    20.6560    22.2320 ca         1 JSI      -0.101000
     16 C11          0.9310    19.8160    22.6560 ca         1 JSI      -0.150000
     17 C12          1.4780    18.6810    23.2730 ca         1 JSI      -0.116000
     18 Br1          1.0390    22.3540    21.3050 br         1 JSI      -0.175100
     19 C14          6.1120    19.9280    22.0620 c2         1 JSI      -0.117600
     20 P1           7.9700    19.6870    22.2710 p5         1 JSI       1.125100
     21 O1           8.5640    21.0540    22.3070 o          1 JSI      -0.919833
     22 O2           8.4540    19.0810    20.9980 o          1 JSI      -0.919833
     23 O3           8.2710    18.8670    23.4800 o          1 JSI      -0.919833
     24 O4           0.8410    18.4510    29.7440 o          1 JSI      -0.589000
     25 H1          -0.8770    16.8750    28.9210 hn         1 JSI       0.314500
     26 H2           3.4080    19.3480    28.4000 hn         1 JSI       0.352000
     27 H3           4.7510    18.9850    26.2280 h4         1 JSI       0.163000
     28 H4           5.6000    18.7920    23.7690 ha         1 JSI       0.204000
     29 H5          -0.9750    15.6990    26.9610 h5         1 JSI       0.042800
     30 H6           3.8140    21.4370    21.8340 ha         1 JSI       0.145000
     31 H7          -0.1480    19.9280    22.5810 ha         1 JSI       0.094000
     32 H8           0.8150    17.9150    23.6700 ha         1 JSI       0.092000
     33 H9           5.8290    20.5180    21.1950 ha         1 JSI       0.119000
@<TRIPOS>BOND
     1     1    10 1   
     2     1    11 1   
     3     1    25 1   
     4     2     3 1   
     5     2     5 1   
     6     2    26 1   
     7     3    10 1   
     8     3    13 2   
     9     4     5 2   
    10     4    13 1   
    11     4    14 1   
    12     5    27 1   
    13     6     7 ar  
    14     6    14 1   
    15     6    17 ar  
    16     7     9 1   
    17     7    15 ar  
    18     8    15 ar  
    19     8    16 ar  
    20     8    18 1   
    21     9    19 2   
    22     9    28 1   
    23    10    24 2   
    24    11    12 2   
    25    11    29 1   
    26    12    13 1   
    27    15    30 1   
    28    16    17 ar  
    29    16    31 1   
    30    17    32 1   
    31    19    20 1   
    32    19    33 1   
    33    20    21 1   
    34    20    22 1   
    35    20    23 1   
@<TRIPOS>SUBSTRUCTURE
     1 JSI         1 TEMP              0 ****  ****    0 ROOT
