@<TRIPOS>MOLECULE
JSI
   33    35     1     0     0
SMALL
bcc


@<TRIPOS>ATOM
      1 N1          -0.0050    16.0540    27.5640 ns         1 JSI      -0.493400
      2 N3           1.9730    18.9550    28.4910 na         1 JSI      -0.132100
      3 C4           1.3710    17.8550    27.9560 cc         1 JSI      -0.264900
      4 C5           3.0290    18.5180    26.5820 cd         1 JSI      -0.081100
      5 C6           2.9660    19.3590    27.6770 cc         1 JSI      -0.067300
      6 C7           3.3420    19.5660    24.0450 ca         1 JSI      -0.010100
      7 C8           4.0660    19.8980    22.8870 ca         1 JSI       0.058200
      8 C10          2.0950    21.0220    22.0500 ca         1 JSI      -0.006900
      9 C13          5.4720    19.5060    22.7150 ce         1 JSI      -0.256200
     10 C1           0.2700    17.0910    28.4480 c          1 JSI       0.741100
     11 C2           0.6640    15.8080    26.4070 cc         1 JSI       0.450800
     12 N2           1.6530    16.5030    25.9630 nd         1 JSI      -0.522100
     13 C3           2.0080    17.5480    26.7620 cd         1 JSI       0.162400
     14 S1           4.1800    18.6010    25.2800 ss         1 JSI      -0.061800
     15 C9           3.4170    20.6420    21.8980 ca         1 JSI      -0.119000
     16 C11          1.3820    20.6870    23.1890 ca         1 JSI      -0.168000
     17 C12          2.0160    19.9560    24.1820 ca         1 JSI      -0.134000
     18 BR1          1.2600    22.0430    20.6950 br         1 JSI      -0.175100
     19 C14          6.0610    19.1970    21.5540 c2         1 JSI      -0.067600
     20 P1           7.8470    18.7530    21.3310 p5         1 JSI       1.125100
     21 O1           8.3420    19.8010    20.3290 o          1 JSI      -0.919833
     22 O2           7.7930    17.3310    20.7650 o          1 JSI      -0.919833
     23 O3           8.4650    18.8600    22.7290 o          1 JSI      -0.919833
     24 O4          -0.3710    17.2690    29.4700 o          1 JSI      -0.664500
     25 H1          -0.7690    15.4370    27.8060 hn         1 JSI       0.314500
     26 H2           1.7200    19.3980    29.3620 hn         1 JSI       0.301700
     27 H3           3.5740    20.2170    27.9140 h4         1 JSI       0.181000
     28 H4           6.0770    19.4700    23.6180 ha         1 JSI       0.154000
     29 H5           0.3060    14.9530    25.8470 h5         1 JSI       0.042800
     30 H6           3.9740    20.9360    21.0190 ha         1 JSI       0.163000
     31 H7           0.3500    20.9840    23.3190 ha         1 JSI       0.112000
     32 H8           1.4560    19.6970    25.0700 ha         1 JSI       0.110000
     33 H9           5.4390    19.1980    20.6570 ha         1 JSI       0.069000
@<TRIPOS>BOND
     1     1    10 1   
     2     1    11 1   
     3     1    25 1   
     4     2     3 1   
     5     2     5 1   
     6     2    26 1   
     7     3    10 1   
     8     3    13 2   
     9     4     5 2   
    10     4    13 1   
    11     4    14 1   
    12     5    27 1   
    13     6     7 ar  
    14     6    14 1   
    15     6    17 ar  
    16     7     9 1   
    17     7    15 ar  
    18     8    15 ar  
    19     8    16 ar  
    20     8    18 1   
    21     9    19 2   
    22     9    28 1   
    23    10    24 2   
    24    11    12 2   
    25    11    29 1   
    26    12    13 1   
    27    15    30 1   
    28    16    17 ar  
    29    16    31 1   
    30    17    32 1   
    31    19    20 1   
    32    19    33 1   
    33    20    21 1   
    34    20    22 1   
    35    20    23 1   
@<TRIPOS>SUBSTRUCTURE
     1 JSI         1 TEMP              0 ****  ****    0 ROOT
