@<TRIPOS>MOLECULE
JSJ
   67    70     1     0     0
SMALL
abcg2


@<TRIPOS>ATOM
      1 C1           4.5030     0.1200     0.6050 c5         1 JSJ       0.303300
      2 C10         -3.9100    -2.9300     0.4580 c5         1 JSJ       0.212400
      3 C11         -3.9590    -1.7140    -0.4150 c2         1 JSJ      -0.184200
      4 C12         -5.1940    -1.2440    -0.5470 c2         1 JSJ      -0.121400
      5 C13         -5.5670    -0.0520    -1.3410 c3         1 JSJ       0.099800
      6 C14         -6.1780    -2.1000     0.2150 c5         1 JSJ       0.224400
      7 C15         -7.1310    -1.3010     1.1000 c3         1 JSJ      -0.078600
      8 C16         -7.0000    -2.9550    -0.7600 c3         1 JSJ      -0.078600
      9 C2           4.6980    -4.1890     1.1150 ca         1 JSJ       0.167900
     10 C7           5.5980     1.1850     0.7450 c5         1 JSJ       0.083300
     11 C3           4.7820     2.5060     0.8720 c5         1 JSJ       0.095300
     12 C4           4.8250    -2.2920     0.0180 ca         1 JSJ       0.141500
     13 C9           3.3260     2.0350     0.7890 c5         1 JSJ       0.161300
     14 C5           5.1310    -2.9320    -1.1720 ca         1 JSJ      -0.094600
     15 C19          2.4360     2.9900     0.0380 c3         1 JSJ       0.233600
     16 C6           5.2090    -4.3350    -1.1240 ca         1 JSJ       0.440900
     17 C8           5.0970    -0.8700    -1.6230 cc         1 JSJ       0.435700
     18 N1           4.9840    -4.9350     0.0510 nb         1 JSJ      -0.316000
     19 N10         -5.2470    -2.8550     1.0690 n3         1 JSJ      -0.504100
     20 N3           4.5990    -2.8730     1.1930 nb         1 JSJ      -0.196000
     21 N6           5.5070    -5.0790    -2.1900 nv         1 JSJ      -1.075900
     22 N7           5.2950    -2.0230    -2.1870 nd         1 JSJ      -0.578100
     23 N9           4.8130    -0.9600    -0.2860 na         1 JSJ      -0.264300
     24 O1A          0.1970     3.6080    -2.0840 o          1 JSJ      -0.839000
     25 O1B         -3.0880     3.7180    -1.5660 o          1 JSJ      -0.774000
     26 O2           6.3800     0.8590     1.8540 oh         1 JSJ      -0.694000
     27 O2A         -0.2360     4.6840     0.2430 o          1 JSJ      -0.839000
     28 O2B         -2.5810     1.2480    -2.2230 o          1 JSJ      -0.774000
     29 O3           4.9770     3.2030     2.0670 oh         1 JSJ      -0.686000
     30 O3A         -1.2490     2.3810    -0.3360 os         1 JSJ      -0.667800
     31 O4           3.3750     0.7890     0.1170 os         1 JSJ      -0.406000
     32 O5           1.1100     2.5100     0.0570 os         1 JSJ      -0.559400
     33 O6          -5.7450    -4.1030     1.4390 oh         1 JSJ      -0.482300
     34 PA          -0.0440     3.4750    -0.6140 p5         1 JSJ       1.445800
     35 PB          -2.6400     2.3410    -1.2040 p5         1 JSJ       1.282800
     36 S1          -3.7750     1.6280     0.4850 ss         1 JSJ      -0.367400
     37 S2          -5.6440     1.5020    -0.3580 ss         1 JSJ      -0.235000
     38 H1           4.3150    -0.3260     1.5900 h2         1 JSJ       0.105700
     39 H2          -3.0790    -1.2880    -0.8800 ha         1 JSJ       0.243000
     40 H3          -4.8620     0.1140    -2.1530 h1         1 JSJ       0.078200
     41 H4          -6.5720    -0.1320    -1.7650 h1         1 JSJ       0.078200
     42 H5          -7.8030    -0.6780     0.5060 hc         1 JSJ       0.032367
     43 H6          -7.7510    -1.9790     1.6900 hc         1 JSJ       0.032367
     44 H7          -6.5820    -0.6520     1.7810 hc         1 JSJ       0.032367
     45 H8          -6.3660    -3.5610    -1.4070 hc         1 JSJ       0.032367
     46 H9          -7.6850    -3.6170    -0.2300 hc         1 JSJ       0.032367
     47 H10         -7.6040    -2.3100    -1.4000 hc         1 JSJ       0.032367
     48 H11         -2.6730    -4.1070    -0.8650 hc         1 JSJ       0.035533
     49 H12         -3.6320    -5.0860     0.2370 hc         1 JSJ       0.035533
     50 H13         -4.3940    -4.3220    -1.1640 hc         1 JSJ       0.035533
     51 H14         -1.8440    -2.8040     1.1200 hc         1 JSJ       0.035533
     52 H15         -2.9840    -1.9100     2.1340 hc         1 JSJ       0.035533
     53 H16         -2.9020    -3.6760     2.2260 hc         1 JSJ       0.035533
     54 H17          4.5230    -4.7370     2.0350 h5         1 JSJ       0.037100
     55 H18          6.2030     1.2230    -0.1690 h1         1 JSJ       0.031700
     56 H19          5.0080     3.1390     0.0040 h1         1 JSJ       0.043700
     57 H20          2.9450     1.8940     1.8120 h1         1 JSJ       0.083700
     58 H21          2.5160     3.9720     0.5210 h1         1 JSJ       0.022700
     59 H22          2.8060     3.0990    -0.9890 h1         1 JSJ       0.022700
     60 H23          5.1410     0.0820    -2.1320 h5         1 JSJ       0.075800
     61 H24          5.5990    -4.6640    -3.1010 hn         1 JSJ       0.497500
     62 H25          5.4790    -6.0820    -2.1280 hn         1 JSJ       0.497500
     63 H27          7.1540     1.4290     1.8720 ho         1 JSJ       0.494000
     64 H29          5.7380     3.7830     1.9730 ho         1 JSJ       0.488000
     65 H30         -5.8250    -4.0530     2.3960 ho         1 JSJ       0.438000
     66 C17         -3.6480    -4.1880    -0.3810 c3         1 JSJ      -0.079600
     67 C18         -2.8470    -2.8210     1.5500 c3         1 JSJ      -0.079600
@<TRIPOS>BOND
     1     1    10 1   
     2     1    23 1   
     3     1    31 1   
     4     1    38 1   
     5     2     3 1   
     6     2    19 1   
     7     2    66 1   
     8     2    67 1   
     9     3     4 2   
    10     3    39 1   
    11     4     5 1   
    12     4     6 1   
    13     5    37 1   
    14     5    40 1   
    15     5    41 1   
    16     6     7 1   
    17     6     8 1   
    18     6    19 1   
    19     7    42 1   
    20     7    43 1   
    21     7    44 1   
    22     8    45 1   
    23     8    46 1   
    24     8    47 1   
    25     9    18 ar  
    26     9    20 ar  
    27     9    54 1   
    28    10    11 1   
    29    10    26 1   
    30    10    55 1   
    31    11    13 1   
    32    11    29 1   
    33    11    56 1   
    34    12    14 ar  
    35    12    20 ar  
    36    12    23 1   
    37    13    15 1   
    38    13    31 1   
    39    13    57 1   
    40    14    16 ar  
    41    14    22 1   
    42    15    32 1   
    43    15    58 1   
    44    15    59 1   
    45    16    18 ar  
    46    16    21 1   
    47    17    22 2   
    48    17    23 1   
    49    17    60 1   
    50    19    33 1   
    51    21    61 1   
    52    21    62 1   
    53    24    34 1   
    54    25    35 1   
    55    26    63 1   
    56    27    34 1   
    57    28    35 1   
    58    29    64 1   
    59    30    34 1   
    60    30    35 1   
    61    32    34 1   
    62    33    65 1   
    63    35    36 1   
    64    36    37 1   
    65    48    66 1   
    66    49    66 1   
    67    50    66 1   
    68    51    67 1   
    69    52    67 1   
    70    53    67 1   
@<TRIPOS>SUBSTRUCTURE
     1 JSJ         1 TEMP              0 ****  ****    0 ROOT
