@<TRIPOS>MOLECULE
JSJ
   67    70     1     0     0
SMALL
No Charge or Current Charge


@<TRIPOS>ATOM
      1 C1           5.4830    -0.3200     0.4940 c5         1 JSJ       0.303300
      2 C10         -7.0830    -2.4690     1.6310 c5         1 JSJ       0.212400
      3 C11         -5.9570    -2.4170     0.6240 c2         1 JSJ      -0.184200
      4 C12         -5.8090    -1.2110     0.0670 c2         1 JSJ      -0.121400
      5 C13         -4.8050    -0.8560    -1.0160 c3         1 JSJ       0.099800
      6 C14         -6.8360    -0.2240     0.6080 c5         1 JSJ       0.224400
      7 C15         -6.2110     1.1430     0.9890 c3         1 JSJ      -0.078600
      8 C16         -7.9570     0.0370    -0.4420 c3         1 JSJ      -0.078600
      9 C2           9.2950    -2.0530    -1.0800 ca         1 JSJ       0.167900
     10 C7           4.6420     0.6510     1.4130 c5         1 JSJ       0.083300
     11 C3           3.4320     0.9560     0.4800 c5         1 JSJ       0.095300
     12 C4           7.7440    -0.4320    -0.6280 ca         1 JSJ       0.141500
     13 C9           3.2170    -0.4590    -0.1300 c5         1 JSJ       0.161300
     14 C5           8.5600     0.5090    -1.2060 ca         1 JSJ      -0.094600
     15 C19          2.2760    -0.5000    -1.3630 c3         1 JSJ       0.233600
     16 C6           9.7990     0.0830    -1.7300 ca         1 JSJ       0.440900
     17 C8           6.8130     1.5910    -0.5640 cc         1 JSJ       0.435700
     18 N1          10.1730    -1.2050    -1.6720 nb         1 JSJ      -0.316000
     19 N10         -7.2370    -0.9880     1.8470 n3         1 JSJ      -0.504100
     20 N3           8.0900    -1.7330    -0.5490 nb         1 JSJ      -0.196000
     21 N6          10.6790     0.9330    -2.3250 nv         1 JSJ      -1.075900
     22 N7           7.9960     1.7890    -1.1800 nd         1 JSJ      -0.578100
     23 N9           6.6330     0.2480    -0.2140 na         1 JSJ      -0.264300
     24 O1A          0.8000    -3.6580    -2.9880 o          1 JSJ      -0.839000
     25 O1B         -2.3240    -2.9070    -2.3040 o          1 JSJ      -0.774000
     26 O2           4.1750     0.0220     2.6160 oh         1 JSJ      -0.694000
     27 O2A          0.2120    -1.2750    -3.3770 o          1 JSJ      -0.839000
     28 O2B         -1.2710    -4.5600    -0.7320 o          1 JSJ      -0.774000
     29 O3           2.3030     1.4490     1.2230 oh         1 JSJ      -0.686000
     30 O3A         -0.1740    -2.2760    -1.0400 os         1 JSJ      -0.667800
     31 O4           4.5630    -0.8490    -0.4940 os         1 JSJ      -0.406000
     32 O5           2.0710    -1.8680    -1.7430 os         1 JSJ      -0.559400
     33 O6          -8.5740    -0.6090     2.3630 oh         1 JSJ      -0.482300
     34 PA           0.6580    -2.2990    -2.3850 p5         1 JSJ       1.445800
     35 PB          -1.5110    -3.1240    -1.0690 p5         1 JSJ       1.282800
     36 S1          -2.4450    -2.1620     0.5960 ss         1 JSJ      -0.367400
     37 S2          -3.1790    -0.3840    -0.2630 ss         1 JSJ      -0.235000
     38 H1           5.8840    -1.1390     1.1050 h2         1 JSJ       0.105700
     39 H2          -5.3390    -3.2770     0.3660 ha         1 JSJ       0.243000
     40 H3          -4.6570    -1.7070    -1.6930 h1         1 JSJ       0.078200
     41 H4          -5.1740    -0.0120    -1.6130 h1         1 JSJ       0.078200
     42 H5          -5.8140     1.6650     0.1110 hc         1 JSJ       0.032367
     43 H6          -6.9510     1.8000     1.4600 hc         1 JSJ       0.032367
     44 H7          -5.3840     1.0130     1.6980 hc         1 JSJ       0.032367
     45 H8          -8.3950    -0.8870    -0.8280 hc         1 JSJ       0.032367
     46 H9          -8.7680     0.6440    -0.0240 hc         1 JSJ       0.032367
     47 H10         -7.5630     0.5810    -1.3090 hc         1 JSJ       0.032367
     48 H11         -8.0680    -4.2790     0.8680 hc         1 JSJ       0.035533
     49 H12         -9.1630    -3.2000     1.7350 hc         1 JSJ       0.035533
     50 H13         -8.6430    -2.8140     0.0910 hc         1 JSJ       0.035533
     51 H14         -6.3880    -4.2340     2.7430 hc         1 JSJ       0.035533
     52 H15         -5.7660    -2.7020     3.3720 hc         1 JSJ       0.035533
     53 H16         -7.4460    -3.1670     3.6830 hc         1 JSJ       0.035533
     54 H17          9.5880    -3.1000    -1.0260 h5         1 JSJ       0.037100
     55 H18          5.1990     1.5640     1.6640 h1         1 JSJ       0.031700
     56 H19          3.7140     1.6690    -0.3080 h1         1 JSJ       0.043700
     57 H20          2.8330    -1.1590     0.6240 h1         1 JSJ       0.083700
     58 H21          1.3270    -0.0170    -1.0940 h1         1 JSJ       0.022700
     59 H22          2.7270     0.0690    -2.1870 h1         1 JSJ       0.022700
     60 H23          6.0730     2.3550    -0.3540 h5         1 JSJ       0.075800
     61 H24         10.3230     1.8530    -2.5750 hn         1 JSJ       0.497500
     62 H25         11.3970     0.5400    -2.9290 hn         1 JSJ       0.497500
     63 H27          3.2460     0.3470     2.7120 ho         1 JSJ       0.494000
     64 H29          2.3460     2.4350     1.2090 ho         1 JSJ       0.488000
     65 H30         -8.3970    -0.2200     3.2510 ho         1 JSJ       0.438000
     66 C17         -8.3100    -3.2250     1.0460 c3         1 JSJ      -0.079600
     67 C18         -6.6470    -3.1850     2.9320 c3         1 JSJ      -0.079600
@<TRIPOS>BOND
     1     1    10 1   
     2     1    23 1   
     3     1    31 1   
     4     1    38 1   
     5     2     3 1   
     6     2    19 1   
     7     2    66 1   
     8     2    67 1   
     9     3     4 2   
    10     3    39 1   
    11     4     5 1   
    12     4     6 1   
    13     5    37 1   
    14     5    40 1   
    15     5    41 1   
    16     6     7 1   
    17     6     8 1   
    18     6    19 1   
    19     7    42 1   
    20     7    43 1   
    21     7    44 1   
    22     8    45 1   
    23     8    46 1   
    24     8    47 1   
    25     9    18 ar  
    26     9    20 ar  
    27     9    54 1   
    28    10    11 1   
    29    10    26 1   
    30    10    55 1   
    31    11    13 1   
    32    11    29 1   
    33    11    56 1   
    34    12    14 ar  
    35    12    20 ar  
    36    12    23 1   
    37    13    15 1   
    38    13    31 1   
    39    13    57 1   
    40    14    16 ar  
    41    14    22 1   
    42    15    32 1   
    43    15    58 1   
    44    15    59 1   
    45    16    18 ar  
    46    16    21 1   
    47    17    22 2   
    48    17    23 1   
    49    17    60 1   
    50    19    33 1   
    51    21    61 1   
    52    21    62 1   
    53    24    34 1   
    54    25    35 1   
    55    26    63 1   
    56    27    34 1   
    57    28    35 1   
    58    29    64 1   
    59    30    34 1   
    60    30    35 1   
    61    32    34 1   
    62    33    65 1   
    63    35    36 1   
    64    36    37 1   
    65    48    66 1   
    66    49    66 1   
    67    50    66 1   
    68    51    67 1   
    69    52    67 1   
    70    53    67 1   
@<TRIPOS>SUBSTRUCTURE
     1 JSJ         1 TEMP              0 ****  ****    0 ROOT
