@<TRIPOS>MOLECULE
JSK
   53    55     1     0     0
SMALL
abcg2


@<TRIPOS>ATOM
      1 C01         -1.0170   -39.1050    60.7560 c3         1 JSK       0.088600
      2 C02         -4.7510   -36.9090    57.2190 ca         1 JSK      -0.056500
      3 C03         -1.9120   -37.9610    64.1620 c5         1 JSK       0.132800
      4 C04         -1.7690   -39.4690    64.4530 c5         1 JSK       0.101300
      5 C05         -1.3560   -40.0780    63.0830 c5         1 JSK       0.107300
      6 C06         -3.1420   -35.2500    56.5820 ca         1 JSK      -0.056500
      7 C07         -3.4790   -36.3540    57.3760 ca         1 JSK      -0.137500
      8 C08         -2.5250   -36.9130    58.3340 cc         1 JSK       0.267500
      9 C09         -2.5980   -38.0760    59.0790 cd         1 JSK      -0.194000
     10 C10         -5.6610   -36.3960    56.3020 ca         1 JSK      -0.169500
     11 C11         -5.3050   -35.3000    55.5170 ca         1 JSK       0.142100
     12 C12         -4.0380   -34.7290    55.6660 ca         1 JSK      -0.169500
     13 C13         -7.4210   -35.2670    54.3930 c3         1 JSK       0.160600
     14 C14         -8.0700   -34.4490    53.2950 c3         1 JSK       0.150600
     15 C15        -10.0640   -34.4700    51.9830 c3         1 JSK       0.137600
     16 C16        -10.5230   -33.0130    52.1360 c3         1 JSK       0.162800
     17 C17         -1.7530   -38.9830    62.0760 c5         1 JSK       0.099500
     18 N01         -1.4870   -37.7220    62.7700 n7         1 JSK      -0.811400
     19 N02         -1.4460   -38.1160    59.7760 na         1 JSK       0.123800
     20 N03         -0.6860   -37.0480    59.5000 nd         1 JSK      -0.198800
     21 N04         -1.3310   -36.3200    58.6290 nc         1 JSK      -0.356000
     22 N05        -11.3200   -32.5690    51.0070 nu         1 JSK      -0.725500
     23 N06        -12.6200   -32.7590    50.8230 n2         1 JSK       0.013300
     24 N07        -13.3180   -33.3830    51.6580 n2         1 JSK      -0.466400
     25 O01         -1.9260   -41.3480    62.8340 oh         1 JSK      -0.646000
     26 O03         -6.1160   -34.7250    54.5880 os         1 JSK      -0.358100
     27 O04         -9.3920   -34.9460    53.1380 os         1 JSK      -0.460000
     28 H1          -1.1810   -40.0960    60.3340 h1         1 JSK       0.079200
     29 H2           0.0530   -38.9590    60.8980 h1         1 JSK       0.079200
     30 H3          -5.0490   -37.7570    57.8220 ha         1 JSK       0.122000
     31 H4          -1.3360   -37.3390    64.8440 h1         1 JSK       0.074700
     32 H5          -2.9680   -37.7000    64.2710 h1         1 JSK       0.074700
     33 H6          -1.0200   -39.6770    65.2160 h1         1 JSK       0.053700
     34 H7          -0.2700   -40.2040    63.0560 h1         1 JSK       0.072700
     35 H8          -2.1630   -34.8000    56.6810 ha         1 JSK       0.122000
     36 H9          -3.3430   -38.8480    59.1570 h4         1 JSK       0.164000
     37 H10         -6.6350   -36.8550    56.2120 ha         1 JSK       0.123000
     38 H11         -3.7710   -33.8780    55.0530 ha         1 JSK       0.123000
     39 H12         -8.0040   -35.1940    55.3150 h1         1 JSK       0.049700
     40 H13         -7.3580   -36.3180    54.0980 h1         1 JSK       0.049700
     41 H14         -7.5100   -34.5580    52.3600 h1         1 JSK       0.040700
     42 H15         -8.0700   -33.3910    53.5760 h1         1 JSK       0.040700
     43 H16        -10.9260   -35.1240    51.8450 h1         1 JSK       0.057200
     44 H17         -9.4210   -34.5600    51.1010 h1         1 JSK       0.057200
     45 H18         -9.6670   -32.3440    52.1900 h1         1 JSK       0.061700
     46 H19        -11.0870   -32.8970    53.0660 h1         1 JSK       0.061700
     47 H20         -2.8320   -39.0620    61.8980 h1         1 JSK       0.085700
     48 H21         -0.4860   -37.5480    62.7550 hn         1 JSK       0.409000
     49 H23        -10.8850   -32.0500    50.2610 hn         1 JSK       0.517000
     50 H24        -12.7670   -33.7190    52.4640 hn         1 JSK       0.355400
     51 H25         -2.8170   -41.3250    63.2170 ho         1 JSK       0.457000
     52 H26         -2.8800   -40.7410    65.4620 ho         1 JSK       0.451000
     53 O02         -3.0350   -39.9910    64.8760 oh         1 JSK      -0.662000
@<TRIPOS>BOND
     1     1    17 1   
     2     1    19 1   
     3     1    28 1   
     4     1    29 1   
     5     2     7 ar  
     6     2    10 ar  
     7     2    30 1   
     8     3     4 1   
     9     3    18 1   
    10     3    31 1   
    11     3    32 1   
    12     4     5 1   
    13     4    33 1   
    14     4    53 1   
    15     5    17 1   
    16     5    25 1   
    17     5    34 1   
    18     6     7 ar  
    19     6    12 ar  
    20     6    35 1   
    21     7     8 1   
    22     8     9 2   
    23     8    21 1   
    24     9    19 1   
    25     9    36 1   
    26    10    11 ar  
    27    10    37 1   
    28    11    12 ar  
    29    11    26 1   
    30    12    38 1   
    31    13    14 1   
    32    13    26 1   
    33    13    39 1   
    34    13    40 1   
    35    14    27 1   
    36    14    41 1   
    37    14    42 1   
    38    15    16 1   
    39    15    27 1   
    40    15    43 1   
    41    15    44 1   
    42    16    22 1   
    43    16    45 1   
    44    16    46 1   
    45    17    18 1   
    46    17    47 1   
    47    18    48 1   
    48    19    20 1   
    49    20    21 2   
    50    22    23 1   
    51    22    49 1   
    52    23    24 2   
    53    24    50 1   
    54    25    51 1   
    55    52    53 1   
@<TRIPOS>SUBSTRUCTURE
     1 JSK         1 TEMP              0 ****  ****    0 ROOT
