@<TRIPOS>MOLECULE
JSK
   53    55     1     0     0
SMALL
No Charge or Current Charge


@<TRIPOS>ATOM
      1 C01         -0.8100   -38.8900    60.8020 c3         1 JSK       0.088600
      2 C02         -4.5170   -36.8430    57.2850 ca         1 JSK      -0.056500
      3 C03         -2.3650   -38.0730    64.1460 c5         1 JSK       0.132800
      4 C04         -2.3050   -39.6420    64.2540 c5         1 JSK       0.101300
      5 C05         -1.3170   -39.9980    63.1030 c5         1 JSK       0.107300
      6 C06         -2.8540   -35.3700    56.3030 ca         1 JSK      -0.056500
      7 C07         -3.1930   -36.3470    57.2650 ca         1 JSK      -0.137500
      8 C08         -2.1890   -36.7960    58.2430 cc         1 JSK       0.267500
      9 C09         -2.3750   -37.8710    59.0550 cd         1 JSK      -0.194000
     10 C10         -5.4700   -36.3890    56.3550 ca         1 JSK      -0.169500
     11 C11         -5.1140   -35.4230    55.3910 ca         1 JSK       0.142100
     12 C12         -3.8070   -34.9180    55.3750 ca         1 JSK      -0.169500
     13 C13         -7.3710   -35.3940    54.3890 c3         1 JSK       0.160600
     14 C14         -8.0670   -34.6500    53.2320 c3         1 JSK       0.150600
     15 C15        -10.2300   -34.5760    52.0770 c3         1 JSK       0.137600
     16 C16        -10.5160   -33.0640    52.3050 c3         1 JSK       0.162800
     17 C17         -1.7440   -38.9460    62.0390 c5         1 JSK       0.099500
     18 N01         -1.7560   -37.6870    62.8340 n7         1 JSK      -0.811400
     19 N02         -1.1980   -37.9140    59.7710 na         1 JSK       0.123800
     20 N03         -0.3510   -36.9050    59.3720 nd         1 JSK      -0.198800
     21 N04         -0.9650   -36.2250    58.4350 nc         1 JSK      -0.356000
     22 N05        -11.4990   -32.5240    51.3180 nu         1 JSK      -0.725500
     23 N06        -12.8510   -32.5590    51.4520 n2         1 JSK       0.013300
     24 N07        -13.2900   -33.1790    52.4430 n2         1 JSK      -0.466400
     25 O01         -1.5030   -41.3490    62.6800 oh         1 JSK      -0.646000
     26 O03         -6.0050   -34.9400    54.4550 os         1 JSK      -0.358100
     27 O04         -9.4370   -35.1040    53.1650 os         1 JSK      -0.460000
     28 H1          -0.7940   -39.8800    60.3320 h1         1 JSK       0.079200
     29 H2           0.2120   -38.6680    61.1320 h1         1 JSK       0.079200
     30 H3          -4.8260   -37.5800    58.0220 ha         1 JSK       0.122000
     31 H4          -1.8260   -37.5960    64.9780 h1         1 JSK       0.074700
     32 H5          -3.4060   -37.7240    64.2030 h1         1 JSK       0.074700
     33 H6          -1.8980   -39.9500    65.2280 h1         1 JSK       0.053700
     34 H7          -0.2770   -39.8310    63.4180 h1         1 JSK       0.072700
     35 H8          -1.8480   -34.9590    56.2670 ha         1 JSK       0.122000
     36 H9          -3.1890   -38.5710    59.1780 h4         1 JSK       0.164000
     37 H10         -6.4750   -36.7960    56.4010 ha         1 JSK       0.123000
     38 H11         -3.5290   -34.1690    54.6370 ha         1 JSK       0.123000
     39 H12         -7.8980   -35.1770    55.3280 h1         1 JSK       0.049700
     40 H13         -7.4120   -36.4750    54.2010 h1         1 JSK       0.049700
     41 H14         -7.5400   -34.8660    52.2940 h1         1 JSK       0.040700
     42 H15         -8.0160   -33.5700    53.4220 h1         1 JSK       0.040700
     43 H16        -11.1850   -35.1150    52.0280 h1         1 JSK       0.057200
     44 H17         -9.7230   -34.7170    51.1140 h1         1 JSK       0.057200
     45 H18         -9.5730   -32.5110    52.2000 h1         1 JSK       0.061700
     46 H19        -10.8580   -32.9050    53.3370 h1         1 JSK       0.061700
     47 H20         -2.7590   -39.1720    61.6800 h1         1 JSK       0.085700
     48 H21         -0.7840   -37.3940    63.0020 hn         1 JSK       0.409000
     49 H23        -11.0910   -32.0300    50.5130 hn         1 JSK       0.517000
     50 H24        -12.4680   -33.5630    52.9180 hn         1 JSK       0.355400
     51 H25         -2.4300   -41.5480    62.9550 ho         1 JSK       0.457000
     52 H26         -4.1700   -39.9930    64.7910 ho         1 JSK       0.451000
     53 O02         -3.5910   -40.2550    64.0390 oh         1 JSK      -0.662000
@<TRIPOS>BOND
     1     1    17 1   
     2     1    19 1   
     3     1    28 1   
     4     1    29 1   
     5     2     7 ar  
     6     2    10 ar  
     7     2    30 1   
     8     3     4 1   
     9     3    18 1   
    10     3    31 1   
    11     3    32 1   
    12     4     5 1   
    13     4    33 1   
    14     4    53 1   
    15     5    17 1   
    16     5    25 1   
    17     5    34 1   
    18     6     7 ar  
    19     6    12 ar  
    20     6    35 1   
    21     7     8 1   
    22     8     9 2   
    23     8    21 1   
    24     9    19 1   
    25     9    36 1   
    26    10    11 ar  
    27    10    37 1   
    28    11    12 ar  
    29    11    26 1   
    30    12    38 1   
    31    13    14 1   
    32    13    26 1   
    33    13    39 1   
    34    13    40 1   
    35    14    27 1   
    36    14    41 1   
    37    14    42 1   
    38    15    16 1   
    39    15    27 1   
    40    15    43 1   
    41    15    44 1   
    42    16    22 1   
    43    16    45 1   
    44    16    46 1   
    45    17    18 1   
    46    17    47 1   
    47    18    48 1   
    48    19    20 1   
    49    20    21 2   
    50    22    23 1   
    51    22    49 1   
    52    23    24 2   
    53    24    50 1   
    54    25    51 1   
    55    52    53 1   
@<TRIPOS>SUBSTRUCTURE
     1 JSK         1 TEMP              0 ****  ****    0 ROOT
