@<TRIPOS>MOLECULE
JSL
   53    55     1     0     0
SMALL
abcg2


@<TRIPOS>ATOM
      1 C10         20.7380     4.6210   -24.8020 ca         1 JSL       0.216000
      2 C20         21.7080     2.6380   -20.2190 ca         1 JSL      -0.040000
      3 C21         21.1570     1.9910   -19.1210 ca         1 JSL      -0.153000
      4 C22         20.6970     0.6970   -19.2670 ca         1 JSL      -0.011000
      5 C26         18.3370    -1.3680   -20.9760 c3         1 JSL      -0.244700
      6 C28         17.6840    -2.7440   -20.9890 c3         1 JSL      -0.081600
      7 C01         22.9940     6.8200   -26.6230 c3         1 JSL       0.148900
      8 C03         21.5340     5.7450   -25.0910 ca         1 JSL       0.158100
      9 C04         21.6100     6.7910   -24.1850 ca         1 JSL      -0.229000
     10 C05         20.9170     6.7280   -22.9740 ca         1 JSL       0.173100
     11 C07         20.4530     7.7580   -20.8910 c3         1 JSL       0.148900
     12 C08         20.1290     5.6210   -22.6820 ca         1 JSL      -0.227000
     13 C09         20.0390     4.5910   -23.6100 ca         1 JSL      -0.029000
     14 C12         20.8630     2.2720   -25.5000 ca         1 JSL       0.428900
     15 C14         21.0310     0.1860   -26.2760 ca         1 JSL       0.204900
     16 C16         21.2310     0.5720   -24.0910 ca         1 JSL       0.425900
     17 C18         21.3150     0.7090   -21.6240 ca         1 JSL       0.409000
     18 C19         21.7990     2.0070   -21.4470 ca         1 JSL      -0.138000
     19 C23         20.7630     0.0610   -20.5030 ca         1 JSL      -0.306500
     20 C27         18.1590    -0.6270   -22.2890 c3         1 JSL      -0.081600
     21 N11         20.6740     3.5790   -25.7450 nu         1 JSL      -0.910900
     22 N13         20.8370     1.4570   -26.5670 nb         1 JSL      -0.303000
     23 N15         21.2330    -0.3330   -25.0790 nb         1 JSL      -0.290000
     24 N17         21.4040     0.0550   -22.8480 nu         1 JSL      -0.946900
     25 N30         21.0570     1.8710   -24.2480 nb         1 JSL      -0.333000
     26 O02         22.1790     5.7200   -26.2690 os         1 JSL      -0.344100
     27 O06         21.0730     7.7880   -22.1600 os         1 JSL      -0.340100
     28 O25         20.1600    -2.1530   -19.2160 o          1 JSL      -0.523500
     29 O29         20.7410    -2.3320   -21.6450 o          1 JSL      -0.523500
     30 S24         20.0860    -1.5870   -20.5610 sy         1 JSL       1.016500
     31 H1          22.0880     3.6460   -20.1200 ha         1 JSL       0.117000
     32 H2          21.0950     2.4840   -18.1610 ha         1 JSL       0.121000
     33 H3          20.2770     0.1790   -18.4160 ha         1 JSL       0.136000
     34 H4          17.9440    -0.7710   -20.1490 h1         1 JSL       0.091700
     35 H5          17.7940    -3.2670   -20.0410 hc         1 JSL       0.054700
     36 H6          16.6180    -2.6150   -21.1740 hc         1 JSL       0.054700
     37 H7          18.0870    -3.3670   -21.7880 hc         1 JSL       0.054700
     38 H8          23.4160     6.5890   -27.5980 h1         1 JSL       0.045367
     39 H9          22.4180     7.7450   -26.6970 h1         1 JSL       0.045367
     40 H10         23.8090     6.9660   -25.9100 h1         1 JSL       0.045367
     41 H11         22.2160     7.6650   -24.3880 ha         1 JSL       0.135000
     42 H12         20.7260     8.6840   -20.3910 h1         1 JSL       0.042033
     43 H13         19.3630     7.7090   -20.9680 h1         1 JSL       0.042033
     44 H14         20.8010     6.9160   -20.2870 h1         1 JSL       0.042033
     45 H15         19.5740     5.5410   -21.7580 ha         1 JSL       0.123000
     46 H16         19.4130     3.7390   -23.3830 ha         1 JSL       0.132000
     47 H17         21.0220    -0.5090   -27.1100 h5         1 JSL       0.052100
     48 H18         22.2500     2.5240   -22.2780 ha         1 JSL       0.149000
     49 H19         17.0910    -0.5280   -22.4830 hc         1 JSL       0.054700
     50 H20         18.5760     0.3790   -22.2620 hc         1 JSL       0.054700
     51 H21         18.5980    -1.1730   -23.1240 hc         1 JSL       0.054700
     52 H22         20.6040     3.8260   -26.7220 hn         1 JSL       0.527000
     53 H23         21.3830    -0.9580   -22.8150 hn         1 JSL       0.555000
@<TRIPOS>BOND
     1     1     8 ar  
     2     1    13 ar  
     3     1    21 1   
     4     2     3 ar  
     5     2    18 ar  
     6     2    31 1   
     7     3     4 ar  
     8     3    32 1   
     9     4    19 ar  
    10     4    33 1   
    11     5     6 1   
    12     5    20 1   
    13     5    30 1   
    14     5    34 1   
    15     6    35 1   
    16     6    36 1   
    17     6    37 1   
    18     7    26 1   
    19     7    38 1   
    20     7    39 1   
    21     7    40 1   
    22     8     9 ar  
    23     8    26 1   
    24     9    10 ar  
    25     9    41 1   
    26    10    12 ar  
    27    10    27 1   
    28    11    27 1   
    29    11    42 1   
    30    11    43 1   
    31    11    44 1   
    32    12    13 ar  
    33    12    45 1   
    34    13    46 1   
    35    14    21 1   
    36    14    22 ar  
    37    14    25 ar  
    38    15    22 ar  
    39    15    23 ar  
    40    15    47 1   
    41    16    23 ar  
    42    16    24 1   
    43    16    25 ar  
    44    17    18 ar  
    45    17    19 ar  
    46    17    24 1   
    47    18    48 1   
    48    19    30 1   
    49    20    49 1   
    50    20    50 1   
    51    20    51 1   
    52    21    52 1   
    53    24    53 1   
    54    28    30 2   
    55    29    30 2   
@<TRIPOS>SUBSTRUCTURE
     1 JSL         1 TEMP              0 ****  ****    0 ROOT
