@<TRIPOS>MOLECULE
JSL
   53    55     1     0     0
SMALL
No Charge or Current Charge


@<TRIPOS>ATOM
      1 C10         21.0860     4.6600   -24.7110 ca         1 JSL       0.216000
      2 C20         22.1060     2.0540   -19.8020 ca         1 JSL      -0.040000
      3 C21         21.3870     1.4100   -18.7880 ca         1 JSL      -0.153000
      4 C22         20.7090     0.2120   -19.0610 ca         1 JSL      -0.011000
      5 C26         18.1330    -1.3270   -21.0290 c3         1 JSL      -0.244700
      6 C28         17.1750    -2.5310   -21.2200 c3         1 JSL      -0.081600
      7 C01         22.3400     7.2060   -27.1740 c3         1 JSL       0.148900
      8 C03         21.4590     5.9240   -25.2430 ca         1 JSL       0.158100
      9 C04         21.3450     7.0890   -24.4510 ca         1 JSL      -0.229000
     10 C05         20.8560     7.0140   -23.1410 ca         1 JSL       0.173100
     11 C07         20.2840     8.2210   -21.0670 c3         1 JSL       0.148900
     12 C08         20.4660     5.7680   -22.6130 ca         1 JSL      -0.227000
     13 C09         20.5760     4.6040   -23.3940 ca         1 JSL      -0.029000
     14 C12         21.3040     2.1480   -25.3070 ca         1 JSL       0.428900
     15 C14         21.4620     0.0650   -26.1830 ca         1 JSL       0.204900
     16 C16         21.4610     0.3580   -23.9400 ca         1 JSL       0.425900
     17 C18         21.4480     0.3080   -21.3880 ca         1 JSL       0.409000
     18 C19         22.1360     1.5010   -21.0910 ca         1 JSL      -0.138000
     19 C23         20.7420    -0.3520   -20.3570 ca         1 JSL      -0.306500
     20 C27         18.0890    -0.3640   -22.2460 c3         1 JSL      -0.081600
     21 N11         21.2100     3.5120   -25.5270 nu         1 JSL      -0.910900
     22 N13         21.3580     1.3910   -26.4130 nb         1 JSL      -0.303000
     23 N15         21.5150    -0.5070   -24.9630 nb         1 JSL      -0.290000
     24 N17         21.4920    -0.2070   -22.6820 nu         1 JSL      -0.946900
     25 N30         21.3550     1.6890   -24.0490 nb         1 JSL      -0.333000
     26 O02         21.9340     5.9760   -26.5470 os         1 JSL      -0.344100
     27 O06         20.7700     8.1860   -22.4200 os         1 JSL      -0.340100
     28 O25         19.7430    -2.5960   -19.3450 o          1 JSL      -0.523500
     29 O29         20.3600    -2.5610   -21.8210 o          1 JSL      -0.523500
     30 S24         19.8310    -1.8850   -20.6270 sy         1 JSL       1.016500
     31 H1          22.6420     2.9770   -19.5910 ha         1 JSL       0.117000
     32 H2          21.3580     1.8350   -17.7870 ha         1 JSL       0.121000
     33 H3          20.1570    -0.2730   -18.2570 ha         1 JSL       0.136000
     34 H4          17.8030    -0.7690   -20.1450 h1         1 JSL       0.091700
     35 H5          17.1650    -3.1720   -20.3290 hc         1 JSL       0.054700
     36 H6          16.1480    -2.1860   -21.3930 hc         1 JSL       0.054700
     37 H7          17.4770    -3.1430   -22.0790 hc         1 JSL       0.054700
     38 H8          22.6790     7.0150   -28.2000 h1         1 JSL       0.045367
     39 H9          21.5050     7.9160   -27.2200 h1         1 JSL       0.045367
     40 H10         23.1690     7.6700   -26.6240 h1         1 JSL       0.045367
     41 H11         21.6300     8.0630   -24.8350 ha         1 JSL       0.135000
     42 H12         20.3020     9.2490   -20.6830 h1         1 JSL       0.042033
     43 H13         19.2490     7.8580   -21.0140 h1         1 JSL       0.042033
     44 H14         20.9090     7.6020   -20.4110 h1         1 JSL       0.042033
     45 H15         20.0710     5.6800   -21.6050 ha         1 JSL       0.123000
     46 H16         20.2440     3.6640   -22.9680 ha         1 JSL       0.132000
     47 H17         21.5050    -0.5940   -27.0490 h5         1 JSL       0.052100
     48 H18         22.7140     2.0000   -21.8610 ha         1 JSL       0.149000
     49 H19         17.0580    -0.0490   -22.4500 hc         1 JSL       0.054700
     50 H20         18.6760     0.5420   -22.0580 hc         1 JSL       0.054700
     51 H21         18.4790    -0.8490   -23.1500 hc         1 JSL       0.054700
     52 H22         21.3920     3.7480   -26.5040 hn         1 JSL       0.527000
     53 H23         21.2990    -1.2110   -22.7150 hn         1 JSL       0.555000
@<TRIPOS>BOND
     1     1     8 ar  
     2     1    13 ar  
     3     1    21 1   
     4     2     3 ar  
     5     2    18 ar  
     6     2    31 1   
     7     3     4 ar  
     8     3    32 1   
     9     4    19 ar  
    10     4    33 1   
    11     5     6 1   
    12     5    20 1   
    13     5    30 1   
    14     5    34 1   
    15     6    35 1   
    16     6    36 1   
    17     6    37 1   
    18     7    26 1   
    19     7    38 1   
    20     7    39 1   
    21     7    40 1   
    22     8     9 ar  
    23     8    26 1   
    24     9    10 ar  
    25     9    41 1   
    26    10    12 ar  
    27    10    27 1   
    28    11    27 1   
    29    11    42 1   
    30    11    43 1   
    31    11    44 1   
    32    12    13 ar  
    33    12    45 1   
    34    13    46 1   
    35    14    21 1   
    36    14    22 ar  
    37    14    25 ar  
    38    15    22 ar  
    39    15    23 ar  
    40    15    47 1   
    41    16    23 ar  
    42    16    24 1   
    43    16    25 ar  
    44    17    18 ar  
    45    17    19 ar  
    46    17    24 1   
    47    18    48 1   
    48    19    30 1   
    49    20    49 1   
    50    20    50 1   
    51    20    51 1   
    52    21    52 1   
    53    24    53 1   
    54    28    30 2   
    55    29    30 2   
@<TRIPOS>SUBSTRUCTURE
     1 JSL         1 TEMP              0 ****  ****    0 ROOT
