@<TRIPOS>MOLECULE
JSM
   57    60     1     0     0
SMALL
No Charge or Current Charge


@<TRIPOS>ATOM
      1 C13         28.3440   108.4430    56.0380 cc         1 JSM      -0.276100
      2 C16         29.6160   107.6900    57.9590 cc         1 JSM      -0.091000
      3 C17         30.8640   107.8110    58.5730 cd         1 JSM      -0.172000
      4 C21         27.8260   109.6700    53.8570 ca         1 JSM      -0.016800
      5 C24         34.0350   105.3170    62.8390 c3         1 JSM       0.103000
      6 C25         36.2550   105.3850    61.6520 c3         1 JSM       0.094300
      7 C26         28.3010   110.5430    52.8510 ca         1 JSM      -0.089500
      8 C27         26.5090   109.1710    53.7510 ca         1 JSM      -0.089500
      9 C28         33.7690   105.9140    64.2490 c3         1 JSM       0.143800
     10 C1          35.5210   108.1090    60.6150 cc         1 JSM      -0.249600
     11 C2          35.4030   109.0440    59.5830 cd         1 JSM      -0.163600
     12 C3          30.4550   109.2110    56.2480 cc         1 JSM      -0.052000
     13 N4          29.9980   109.7540    55.1360 nd         1 JSM      -0.295600
     14 C5          34.2730   109.3750    58.6390 c          1 JSM       0.634700
     15 N6          29.4790   108.4370    56.7900 na         1 JSM       0.120100
     16 C8          28.6890   109.2850    54.9960 cd         1 JSM       0.128400
     17 C9          31.7230   109.3280    56.8790 cc         1 JSM      -0.121000
     18 N10         36.6790   109.6480    59.5370 na         1 JSM       0.179800
     19 N11         37.5550   109.1550    60.4850 nd         1 JSM      -0.510800
     20 C12         36.8310   108.2570    61.1030 cc         1 JSM       0.259900
     21 C14         31.9370   108.6330    58.0540 cd         1 JSM       0.077600
     22 N15         33.1190   108.6390    58.7850 ns         1 JSM      -0.395100
     23 N18         34.9910   106.0870    61.9950 n          1 JSM      -0.376800
     24 O19         34.3850   110.2410    57.7840 o          1 JSM      -0.584100
     25 O20         33.3150   107.3870    61.1460 o          1 JSM      -0.655100
     26 N22         34.9520   105.8850    65.1510 n7         1 JSM      -0.875400
     27 C29         35.8900   107.0200    65.0240 c3         1 JSM       0.149100
     28 C30         25.6880   109.5360    52.6690 ca         1 JSM      -0.118000
     29 C31         27.4790   110.9070    51.7700 ca         1 JSM      -0.118000
     30 C32         26.1730   110.4030    51.6780 ca         1 JSM      -0.107000
     31 H35         27.4460   107.8910    56.2810 h4         1 JSM       0.230000
     32 H37         28.7800   107.0930    58.3010 h4         1 JSM       0.144000
     33 H38         31.0290   107.2560    59.4920 ha         1 JSM       0.143000
     34 H40         38.1800   110.9680    58.8410 h1         1 JSM       0.071367
     35 H41         37.0730   110.3450    57.5860 h1         1 JSM       0.071367
     36 H42         36.5110   111.5940    58.7400 h1         1 JSM       0.071367
     37 H43         33.0760   105.2290    62.3110 h1         1 JSM       0.060200
     38 H44         34.4040   104.2930    62.9730 h1         1 JSM       0.060200
     39 H47         36.0920   104.3000    61.6320 h1         1 JSM       0.047700
     40 H45         36.6120   105.6800    60.6570 h1         1 JSM       0.047700
     41 H46         37.0250   105.6040    62.4020 h1         1 JSM       0.047700
     42 H48         29.3100   110.9450    52.9020 ha         1 JSM       0.120500
     43 H49         26.1110   108.4980    54.5050 ha         1 JSM       0.120500
     44 H51         32.9670   105.3110    64.6980 h1         1 JSM       0.043200
     45 H50         33.3750   106.9350    64.1470 h1         1 JSM       0.043200
     46 H33         32.4710   109.9510    56.4060 ha         1 JSM       0.172000
     47 H34         37.2860   107.7530    61.9440 h4         1 JSM       0.045100
     48 H36         33.1540   108.0350    59.5970 hn         1 JSM       0.375500
     49 H39         34.6000   105.9000    66.1180 hn         1 JSM       0.413000
     50 H52         36.7070   106.9250    65.7520 h1         1 JSM       0.029033
     51 H53         36.3370   107.0670    64.0250 h1         1 JSM       0.029033
     52 H54         35.3780   107.9740    65.2140 h1         1 JSM       0.029033
     53 H55         24.6760   109.1440    52.5990 ha         1 JSM       0.110500
     54 H56         27.8580   111.5790    51.0030 ha         1 JSM       0.110500
     55 H57         25.5370   110.6850    50.8410 ha         1 JSM       0.110000
     56 C7          34.5170   107.1920    61.2410 c          1 JSM       0.652700
     57 C23         37.1390   110.7040    58.6190 c3         1 JSM       0.068900
@<TRIPOS>BOND
     1     1    15 1   
     2     1    16 2   
     3     1    31 1   
     4     2     3 2   
     5     2    15 1   
     6     2    32 1   
     7     3    21 1   
     8     3    33 1   
     9     4     7 ar  
    10     4     8 ar  
    11     4    16 1   
    12     5     9 1   
    13     5    23 1   
    14     5    37 1   
    15     5    38 1   
    16     6    23 1   
    17     6    39 1   
    18     6    40 1   
    19     6    41 1   
    20     7    29 ar  
    21     7    42 1   
    22     8    28 ar  
    23     8    43 1   
    24     9    26 1   
    25     9    44 1   
    26     9    45 1   
    27    10    11 2   
    28    10    20 1   
    29    10    56 1   
    30    11    14 1   
    31    11    18 1   
    32    12    13 2   
    33    12    15 1   
    34    12    17 1   
    35    13    16 1   
    36    14    22 1   
    37    14    24 2   
    38    17    21 2   
    39    17    46 1   
    40    18    19 1   
    41    18    57 1   
    42    19    20 2   
    43    20    47 1   
    44    21    22 1   
    45    22    48 1   
    46    23    56 1   
    47    25    56 2   
    48    26    27 1   
    49    26    49 1   
    50    27    50 1   
    51    27    51 1   
    52    27    52 1   
    53    28    30 ar  
    54    28    53 1   
    55    29    30 ar  
    56    29    54 1   
    57    30    55 1   
    58    34    57 1   
    59    35    57 1   
    60    36    57 1   
@<TRIPOS>SUBSTRUCTURE
     1 JSM         1 TEMP              0 ****  ****    0 ROOT
