@<TRIPOS>MOLECULE
JSM
   57    60     1     0     0
SMALL
bcc


@<TRIPOS>ATOM
      1 C13         28.2570   108.8830    56.3700 cc         1 JSM      -0.226100
      2 C16         29.4830   108.5250    58.5000 cc         1 JSM      -0.058300
      3 C17         30.7020   108.5750    59.0810 cd         1 JSM      -0.190000
      4 C21         27.9580   109.4810    53.9140 ca         1 JSM      -0.016800
      5 C24         33.9410   105.2810    62.4090 c3         1 JSM       0.103000
      6 C25         36.2020   105.5530    61.4130 c3         1 JSM       0.094300
      7 C26         28.6060   109.8030    52.7200 ca         1 JSM      -0.107500
      8 C27         26.5670   109.3590    53.9060 ca         1 JSM      -0.107500
      9 C28         33.8530   105.5530    63.9040 c3         1 JSM       0.143800
     10 C1          35.5080   108.2640    60.7210 cc         1 JSM      -0.314900
     11 C2          35.3560   109.1180    59.6310 cd         1 JSM      -0.112900
     12 C3          30.4450   109.2230    56.4190 cc         1 JSM      -0.001300
     13 N4          30.0750   109.4860    55.1820 nd         1 JSM      -0.295600
     14 C5          34.2870   109.2610    58.6060 c          1 JSM       0.701700
     15 N6          29.3570   108.8480    57.1840 na         1 JSM       0.018700
     16 C8          28.7290   109.2810    55.1420 cd         1 JSM       0.128400
     17 C9          31.7240   109.2830    57.0080 cc         1 JSM      -0.139000
     18 N10         36.4980   109.8330    59.5490 na         1 JSM       0.158400
     19 N11         37.3540   109.5220    60.5090 nd         1 JSM      -0.510800
     20 C12         36.7830   108.5710    61.2170 cc         1 JSM       0.325200
     21 C14         31.8580   108.9630    58.3350 cd         1 JSM       0.077600
     22 N15         33.0450   108.9810    59.0580 ns         1 JSM      -0.462100
     23 N18         34.8980   106.1260    61.7000 n          1 JSM      -0.443800
     24 O19         34.5560   109.6070    57.4700 o          1 JSM      -0.584100
     25 O20         33.3480   107.7450    61.4850 o          1 JSM      -0.655100
     26 N22         35.1150   105.3480    64.5970 n7         1 JSM      -0.820200
     27 C29         35.8450   106.5650    64.8870 c3         1 JSM       0.149100
     28 C30         25.8450   109.5510    52.7390 ca         1 JSM      -0.136000
     29 C31         27.8820   109.9960    51.5520 ca         1 JSM      -0.136000
     30 C32         26.5000   109.8710    51.5550 ca         1 JSM      -0.125000
     31 H35         27.2760   108.6240    56.7310 h4         1 JSM       0.180000
     32 H37         28.5840   108.2380    59.0250 h4         1 JSM       0.162000
     33 H38         30.7870   108.3120    60.1270 ha         1 JSM       0.161000
     34 H40         37.7430   111.3680    59.0060 h1         1 JSM       0.071367
     35 H41         37.1330   110.4250    57.6340 h1         1 JSM       0.071367
     36 H42         36.0730   111.5790    58.4630 h1         1 JSM       0.071367
     37 H43         32.9540   105.3940    61.9600 h1         1 JSM       0.060200
     38 H44         34.2500   104.2480    62.2540 h1         1 JSM       0.060200
     39 H47         36.0750   104.4960    61.1860 h1         1 JSM       0.047700
     40 H45         36.6560   106.0230    60.5450 h1         1 JSM       0.047700
     41 H46         36.8850   105.6370    62.2580 h1         1 JSM       0.047700
     42 H48         29.6830   109.9020    52.7080 ha         1 JSM       0.138500
     43 H49         26.0350   109.1150    54.8170 ha         1 JSM       0.138500
     44 H51         33.1120   104.8560    64.3010 h1         1 JSM       0.043200
     45 H50         33.4490   106.5590    64.0780 h1         1 JSM       0.043200
     46 H33         32.5510   109.5850    56.3890 ha         1 JSM       0.190000
     47 H34         37.2900   108.1510    62.0730 h4         1 JSM       0.045100
     48 H36         32.9770   108.6950    60.0400 hn         1 JSM       0.375500
     49 H39         34.9410   104.8630    65.4650 hn         1 JSM       0.357800
     50 H52         36.7140   106.3310    65.5020 h1         1 JSM       0.029033
     51 H53         36.2170   107.0250    63.9710 h1         1 JSM       0.029033
     52 H54         35.2530   107.3250    65.4140 h1         1 JSM       0.029033
     53 H55         24.7670   109.4530    52.7540 ha         1 JSM       0.128500
     54 H56         28.4030   110.2440    50.6360 ha         1 JSM       0.128500
     55 H57         25.9350   110.0220    50.6440 ha         1 JSM       0.128000
     56 C7          34.5080   107.3500    61.3200 c          1 JSM       0.719700
     57 C23         36.8760   110.8600    58.5960 c3         1 JSM       0.039600
@<TRIPOS>BOND
     1     1    15 1   
     2     1    16 2   
     3     1    31 1   
     4     2     3 2   
     5     2    15 1   
     6     2    32 1   
     7     3    21 1   
     8     3    33 1   
     9     4     7 ar  
    10     4     8 ar  
    11     4    16 1   
    12     5     9 1   
    13     5    23 1   
    14     5    37 1   
    15     5    38 1   
    16     6    23 1   
    17     6    39 1   
    18     6    40 1   
    19     6    41 1   
    20     7    29 ar  
    21     7    42 1   
    22     8    28 ar  
    23     8    43 1   
    24     9    26 1   
    25     9    44 1   
    26     9    45 1   
    27    10    11 2   
    28    10    20 1   
    29    10    56 1   
    30    11    14 1   
    31    11    18 1   
    32    12    13 2   
    33    12    15 1   
    34    12    17 1   
    35    13    16 1   
    36    14    22 1   
    37    14    24 2   
    38    17    21 2   
    39    17    46 1   
    40    18    19 1   
    41    18    57 1   
    42    19    20 2   
    43    20    47 1   
    44    21    22 1   
    45    22    48 1   
    46    23    56 1   
    47    25    56 2   
    48    26    27 1   
    49    26    49 1   
    50    27    50 1   
    51    27    51 1   
    52    27    52 1   
    53    28    30 ar  
    54    28    53 1   
    55    29    30 ar  
    56    29    54 1   
    57    30    55 1   
    58    34    57 1   
    59    35    57 1   
    60    36    57 1   
@<TRIPOS>SUBSTRUCTURE
     1 JSM         1 TEMP              0 ****  ****    0 ROOT
