@<TRIPOS>MOLECULE
JSN
   36    37     1     0     0
SMALL
bcc


@<TRIPOS>ATOM
      1 N1           1.8490     2.2280     0.8290 ne         1 JSN      -0.644100
      2 N3           1.0160     1.8310    -1.3420 ns         1 JSN      -0.604900
      3 C4           1.1370    -1.4040     0.5670 c          1 JSN       0.682100
      4 C5           1.2830    -3.8050     0.5580 c3         1 JSN       0.087300
      5 C6           2.5970    -2.5370    -1.0880 c3         1 JSN       0.087300
      6 C7           0.6010     0.4920    -1.0120 c6         1 JSN       0.196000
      7 C8          -0.8500     0.4260    -0.5780 ca         1 JSN      -0.172300
      8 C10         -2.8130     1.3860     0.4830 ca         1 JSN      -0.184000
      9 C13         -1.6210    -0.6900    -0.8630 ca         1 JSN       0.180900
     10 C1           2.1580     0.5670     2.4980 c3         1 JSN      -0.149400
     11 C2           1.8300     0.9830     1.1060 c2         1 JSN       0.519300
     12 C3           1.5990    -0.0560     0.0300 c6         1 JSN      -0.261000
     13 N2           1.6820    -2.5100     0.0380 n          1 JSN      -0.469800
     14 O1           0.2790    -1.4420     1.4390 o          1 JSN      -0.591100
     15 C9          -1.4830     1.4640     0.0970 ca         1 JSN      -0.049000
     16 C11         -3.5220     0.2440     0.1700 ca         1 JSN       0.175900
     17 F1          -4.8080     0.1520     0.5290 f          1 JSN      -0.134900
     18 C12         -2.9490    -0.8140    -0.5090 ca         1 JSN      -0.212000
     19 F2          -1.0520    -1.7150    -1.5170 f          1 JSN      -0.145900
     20 C14          1.6300     2.6710    -0.4860 c          1 JSN       0.834900
     21 O2           1.9870     3.7910    -0.8050 o          1 JSN      -0.593500
     22 H1           0.7850     2.1850    -2.2580 hn         1 JSN       0.333500
     23 H2           0.4190    -4.2000     0.0190 h1         1 JSN       0.044867
     24 H3           2.1100    -4.5020     0.4420 h1         1 JSN       0.044867
     25 H4           1.0350    -3.7400     1.6130 h1         1 JSN       0.044867
     26 H5           3.6390    -2.5490    -0.7630 h1         1 JSN       0.044867
     27 H6           2.4130    -3.4360    -1.6720 h1         1 JSN       0.044867
     28 H7           2.4510    -1.6970    -1.7620 h1         1 JSN       0.044867
     29 H8           0.7170    -0.1050    -1.9170 h1         1 JSN       0.069700
     30 H9          -3.2860     2.2030     1.0090 ha         1 JSN       0.159000
     31 H10          2.5840     1.4020     3.0470 hc         1 JSN       0.070033
     32 H11          1.2630     0.2220     3.0140 hc         1 JSN       0.070033
     33 H12          2.8640    -0.2660     2.4990 hc         1 JSN       0.070033
     34 H13          2.5690    -0.1380    -0.4710 hc         1 JSN       0.087700
     35 H14         -0.9390     2.3680     0.3350 ha         1 JSN       0.150000
     36 H15         -3.5130    -1.7040    -0.7560 ha         1 JSN       0.169000
@<TRIPOS>BOND
     1     1    11 2   
     2     1    20 1   
     3     2     6 1   
     4     2    20 1   
     5     2    22 1   
     6     3    12 1   
     7     3    13 1   
     8     3    14 2   
     9     4    13 1   
    10     4    23 1   
    11     4    24 1   
    12     4    25 1   
    13     5    13 1   
    14     5    26 1   
    15     5    27 1   
    16     5    28 1   
    17     6     7 1   
    18     6    12 1   
    19     6    29 1   
    20     7     9 ar  
    21     7    15 ar  
    22     8    15 ar  
    23     8    16 ar  
    24     8    30 1   
    25     9    18 ar  
    26     9    19 1   
    27    10    11 1   
    28    10    31 1   
    29    10    32 1   
    30    10    33 1   
    31    11    12 1   
    32    12    34 1   
    33    15    35 1   
    34    16    17 1   
    35    16    18 ar  
    36    18    36 1   
    37    20    21 2   
@<TRIPOS>SUBSTRUCTURE
     1 JSN         1 TEMP              0 ****  ****    0 ROOT
