@<TRIPOS>MOLECULE
JSN
   36    37     1     0     0
SMALL
No Charge or Current Charge


@<TRIPOS>ATOM
      1 N1           1.9530     2.4640     0.8650 ne         1 JSN      -0.644100
      2 N3           0.9540     1.9820    -1.1870 ns         1 JSN      -0.537900
      3 C4           1.1710    -1.1940     0.8570 c          1 JSN       0.615100
      4 C5           0.6010    -3.6300     0.7220 c3         1 JSN       0.087300
      5 C6           2.1670    -2.6310    -0.9880 c3         1 JSN       0.087300
      6 C7           0.7880     0.5570    -0.9360 c6         1 JSN       0.196000
      7 C8          -0.7030     0.2850    -0.6780 ca         1 JSN      -0.172300
      8 C10         -2.7470     0.7090     0.5930 ca         1 JSN      -0.166000
      9 C13         -1.4070    -0.6670    -1.4490 ca         1 JSN       0.216000
     10 C1           2.7950     0.8490     2.4320 c3         1 JSN      -0.149400
     11 C2           2.0480     1.2060     1.1620 c2         1 JSN       0.519300
     12 C3           1.7100     0.0920     0.2030 c6         1 JSN      -0.261000
     13 N2           1.2560    -2.4260     0.1630 n          1 JSN      -0.402800
     14 O1           0.6190    -1.1460     1.9470 o          1 JSN      -0.591100
     15 C9          -1.3890     0.9720     0.3490 ca         1 JSN      -0.031000
     16 C11         -3.4280    -0.2400    -0.1820 ca         1 JSN       0.211000
     17 F1          -4.7330    -0.4920     0.0570 f          1 JSN      -0.170000
     18 C12         -2.7620    -0.9290    -1.2020 ca         1 JSN      -0.194000
     19 F2          -0.7850    -1.3500    -2.4350 f          1 JSN      -0.181000
     20 C14          1.5280     2.9230    -0.3750 c          1 JSN       0.692400
     21 O2           1.6300     4.0770    -0.7400 o          1 JSN      -0.518000
     22 H1           0.6280     2.3390    -2.0760 hn         1 JSN       0.333500
     23 H2          -0.4180    -3.3850     1.0480 h1         1 JSN       0.044867
     24 H3           0.5400    -4.4240    -0.0330 h1         1 JSN       0.044867
     25 H4           1.1760    -3.9970     1.5820 h1         1 JSN       0.044867
     26 H5           3.1890    -2.3400    -0.7130 h1         1 JSN       0.044867
     27 H6           2.1800    -3.6870    -1.2870 h1         1 JSN       0.044867
     28 H7           1.8350    -2.0350    -1.8460 h1         1 JSN       0.044867
     29 H8           1.0880     0.0390    -1.8590 h1         1 JSN       0.069700
     30 H9          -3.2730     1.2380     1.3840 ha         1 JSN       0.141000
     31 H10          3.3670     1.7020     2.8120 hc         1 JSN       0.070033
     32 H11          2.1050     0.5440     3.2250 hc         1 JSN       0.070033
     33 H12          3.5040     0.0320     2.2580 hc         1 JSN       0.070033
     34 H13          2.6380    -0.1740    -0.3120 hc         1 JSN       0.087700
     35 H14         -0.8730     1.7080     0.9610 ha         1 JSN       0.132000
     36 H15         -3.2920    -1.6640    -1.7990 ha         1 JSN       0.151000
@<TRIPOS>BOND
     1     1    11 2   
     2     1    20 1   
     3     2     6 1   
     4     2    20 1   
     5     2    22 1   
     6     3    12 1   
     7     3    13 1   
     8     3    14 2   
     9     4    13 1   
    10     4    23 1   
    11     4    24 1   
    12     4    25 1   
    13     5    13 1   
    14     5    26 1   
    15     5    27 1   
    16     5    28 1   
    17     6     7 1   
    18     6    12 1   
    19     6    29 1   
    20     7     9 ar  
    21     7    15 ar  
    22     8    15 ar  
    23     8    16 ar  
    24     8    30 1   
    25     9    18 ar  
    26     9    19 1   
    27    10    11 1   
    28    10    31 1   
    29    10    32 1   
    30    10    33 1   
    31    11    12 1   
    32    12    34 1   
    33    15    35 1   
    34    16    17 1   
    35    16    18 ar  
    36    18    36 1   
    37    20    21 2   
@<TRIPOS>SUBSTRUCTURE
     1 JSN         1 TEMP              0 ****  ****    0 ROOT
