@<TRIPOS>MOLECULE
JSO
   20    21     1     0     0
SMALL
abcg2


@<TRIPOS>ATOM
      1 C9           6.7790    10.1760   -10.0360 c3         1 JSO      -0.136400
      2 C6           7.5140    10.5440    -8.7860 ca         1 JSO       0.263300
      3 N5           7.8460    11.7960    -8.5670 nb         1 JSO      -0.569000
      4 C4A          8.5060    12.0790    -7.4450 ca         1 JSO       0.150500
      5 C4           8.8800    13.4700    -7.1900 c          1 JSO       0.492500
      6 O4           8.6420    14.4150    -7.9110 o          1 JSO      -0.492000
      7 N3           9.5610    13.6270    -5.9990 ns         1 JSO      -0.461400
      8 C2           9.8610    12.6070    -5.1380 cc         1 JSO       0.752800
      9 N2          10.5280    12.9300    -4.0300 nv         1 JSO      -1.059200
     10 N1           9.5260    11.3660    -5.3600 nd         1 JSO      -0.776700
     11 C8A          8.8550    11.1010    -6.5030 ca         1 JSO       0.324000
     12 N8           8.5110     9.8210    -6.7300 nb         1 JSO      -0.113000
     13 C7           7.8620     9.5600    -7.8360 ca         1 JSO       0.081900
     14 H1           6.5810    11.0590   -10.6380 hc         1 JSO       0.054033
     15 H2           7.3570     9.4720   -10.6380 hc         1 JSO       0.054033
     16 H3           5.8280     9.6940    -9.8070 hc         1 JSO       0.054033
     17 H4           9.8450    14.5710    -5.7680 hn         1 JSO       0.325500
     18 H5          10.7620    12.2040    -3.3760 hn         1 JSO       0.513500
     19 H6          10.7970    13.8720    -3.8070 hn         1 JSO       0.513500
     20 H7           7.5850     8.5250    -8.0110 h4         1 JSO       0.029100
@<TRIPOS>BOND
     1     1     2 1   
     2     1    14 1   
     3     1    15 1   
     4     1    16 1   
     5     2     3 ar  
     6     2    13 ar  
     7     3     4 ar  
     8     4     5 1   
     9     4    11 ar  
    10     5     6 2   
    11     5     7 1   
    12     7     8 1   
    13     7    17 1   
    14     8     9 1   
    15     8    10 2   
    16     9    18 1   
    17     9    19 1   
    18    10    11 1   
    19    11    12 ar  
    20    12    13 ar  
    21    13    20 1   
@<TRIPOS>SUBSTRUCTURE
     1 JSO         1 TEMP              0 ****  ****    0 ROOT
