@<TRIPOS>MOLECULE
JSO
   20    21     1     0     0
SMALL
No Charge or Current Charge


@<TRIPOS>ATOM
      1 C9           6.7310    10.1730   -10.0390 c3         1 JSO      -0.136400
      2 C6           7.4870    10.5020    -8.7650 ca         1 JSO       0.263300
      3 N5           7.9000    11.7780    -8.6190 nb         1 JSO      -0.569000
      4 C4A          8.5810    12.0710    -7.4690 ca         1 JSO       0.150500
      5 C4           9.0780    13.4710    -7.2340 c          1 JSO       0.492500
      6 O4           8.9290    14.4070    -8.0090 o          1 JSO      -0.492000
      7 N3           9.7310    13.6300    -6.0580 ns         1 JSO      -0.461400
      8 C2           9.9320    12.6390    -5.1760 cc         1 JSO       0.752800
      9 N2          10.5830    12.9560    -4.0830 nv         1 JSO      -1.059200
     10 N1           9.5590    11.3920    -5.2650 nd         1 JSO      -0.776700
     11 C8A          8.8550    11.0950    -6.4580 ca         1 JSO       0.324000
     12 N8           8.4210     9.8260    -6.6460 nb         1 JSO      -0.113000
     13 C7           7.7490     9.5320    -7.7790 ca         1 JSO       0.081900
     14 H1           5.8200    10.7780   -10.1220 hc         1 JSO       0.054033
     15 H2           7.3490    10.3700   -10.9230 hc         1 JSO       0.054033
     16 H3           6.4340     9.1180   -10.0680 hc         1 JSO       0.054033
     17 H4          10.1070    14.5440    -5.8630 hn         1 JSO       0.325500
     18 H5          10.5450    12.2180    -3.3910 hn         1 JSO       0.513500
     19 H6          10.4210    13.8850    -3.7140 hn         1 JSO       0.513500
     20 H7           7.4160     8.5020    -7.8950 h4         1 JSO       0.029100
@<TRIPOS>BOND
     1     1     2 1   
     2     1    14 1   
     3     1    15 1   
     4     1    16 1   
     5     2     3 ar  
     6     2    13 ar  
     7     3     4 ar  
     8     4     5 1   
     9     4    11 ar  
    10     5     6 2   
    11     5     7 1   
    12     7     8 1   
    13     7    17 1   
    14     8     9 1   
    15     8    10 2   
    16     9    18 1   
    17     9    19 1   
    18    10    11 1   
    19    11    12 ar  
    20    12    13 ar  
    21    13    20 1   
@<TRIPOS>SUBSTRUCTURE
     1 JSO         1 TEMP              0 ****  ****    0 ROOT
