@<TRIPOS>MOLECULE
JSR
   56    58     1     0     0
SMALL
bcc


@<TRIPOS>ATOM
      1 C1           0.1870     3.5530    -0.0610 c3         1 JSR       0.134400
      2 O1          -0.7340     2.6020     0.4230 os         1 JSR      -0.409600
      3 C2           1.5870     3.0420     0.2010 c3         1 JSR       0.161800
      4 N2           1.8460     1.8370    -0.5630 n7         1 JSR      -0.813200
      5 C3           3.1530     1.2680    -0.3100 c3         1 JSR       0.162800
      6 C4           3.3770     0.0360    -1.1850 c3         1 JSR      -0.038100
      7 N1          -3.8460     3.1720     1.3850 n7         1 JSR      -0.796200
      8 C11          4.7130    -0.5990    -0.9220 ca         1 JSR      -0.050300
      9 C12          4.8530    -1.5430     0.0920 ca         1 JSR      -0.168000
     10 C13          6.0970    -2.0880     0.3410 ca         1 JSR       0.134900
     11 F13          6.2140    -3.0030     1.3200 f          1 JSR      -0.146900
     12 C14          7.2220    -1.7350    -0.3790 ca         1 JSR      -0.172000
     13 C15          7.0770    -0.7910    -1.3860 ca         1 JSR      -0.102000
     14 C16          5.8380    -0.2270    -1.6550 ca         1 JSR      -0.143000
     15 N1A         -2.9520    -1.5560     0.4960 nb         1 JSR      -0.748000
     16 C9          -2.8810     3.8560     0.5350 c5         1 JSR       0.120800
     17 C2A         -3.5290    -0.8540    -0.4820 ca         1 JSR       0.463600
     18 C10         -2.0410     2.7220    -0.0860 c5         1 JSR       0.148100
     19 C3A         -4.7110    -1.2450    -1.0850 ca         1 JSR      -0.300300
     20 C17         -2.8170     1.4400     0.2490 c5         1 JSR      -0.066700
     21 C4A         -5.3350    -2.4230    -0.6590 ca         1 JSR       0.000700
     22 C5          -4.1880     1.9550     0.6690 c5         1 JSR       0.152800
     23 C5A         -4.7370    -3.1450     0.3540 ca         1 JSR      -0.315300
     24 C6A         -3.5360    -2.6740     0.9110 ca         1 JSR       0.664200
     25 N6A         -2.8950    -3.3860     1.8860 nv         1 JSR      -0.940500
     26 C7A         -2.8280     0.4150    -0.8780 c3         1 JSR      -0.117700
     27 C8A         -6.6030    -2.8930    -1.3040 c3         1 JSR      -0.053800
     28 H1           0.0520     3.7080    -1.1400 h1         1 JSR       0.030200
     29 H1A          0.0510     4.5270     0.4280 h1         1 JSR       0.030200
     30 H2           2.2920     3.8170    -0.1100 h1         1 JSR       0.038200
     31 H2A          1.7330     2.9060     1.2840 h1         1 JSR       0.038200
     32 HN2          1.1410     1.1480    -0.3230 hn         1 JSR       0.367800
     33 H3           3.9140     2.0190    -0.5450 h1         1 JSR       0.031700
     34 H3A          3.3040     0.9980     0.7470 h1         1 JSR       0.031700
     35 H4           2.5800    -0.6890    -0.9970 hc         1 JSR       0.057200
     36 H4A          3.3000     0.3280    -2.2340 hc         1 JSR       0.057200
     37 HN1         -4.6580     3.7470     1.5630 hn         1 JSR       0.356800
     38 H12          3.9990    -1.8550     0.6810 ha         1 JSR       0.149000
     39 H14          8.1810    -2.1880    -0.1630 ha         1 JSR       0.149000
     40 H15          7.9410    -0.4990    -1.9690 ha         1 JSR       0.134000
     41 H16          5.7410     0.5070    -2.4450 ha         1 JSR       0.136000
     42 H6          -3.3610     4.4260    -0.2730 h1         1 JSR       0.038700
     43 H2'A        -2.2740     4.5610     1.1080 h1         1 JSR       0.038700
     44 H9          -1.9880     2.8680    -1.1750 h1         1 JSR       0.033700
     45 H3AA        -5.1490    -0.6400    -1.8690 ha         1 JSR       0.138000
     46 H10         -2.3440     0.9890     1.1270 hc         1 JSR       0.098700
     47 H5          -4.7240     1.2520     1.3100 h1         1 JSR       0.037200
     48 H5'A        -4.8160     2.1320    -0.2200 h1         1 JSR       0.037200
     49 H5A         -5.1850    -4.0610     0.7200 ha         1 JSR       0.137000
     50 HN6A        -3.4480    -4.0330     2.4220 hn         1 JSR       0.411800
     51 HN6B        -2.2250    -2.8730     2.4340 hn         1 JSR       0.411800
     52 H7A         -1.7960     0.1770    -1.1520 hc         1 JSR       0.056200
     53 H7AA        -3.3010     0.8440    -1.7650 hc         1 JSR       0.056200
     54 H8A         -6.3850    -3.3920    -2.2510 hc         1 JSR       0.046700
     55 H8AA        -7.1380    -3.6020    -0.6740 hc         1 JSR       0.046700
     56 H8AB        -7.2690    -2.0590    -1.5270 hc         1 JSR       0.046700
@<TRIPOS>BOND
     1     1     2 1   
     2     1     3 1   
     3     1    28 1   
     4     1    29 1   
     5     2    18 1   
     6     3     4 1   
     7     3    30 1   
     8     3    31 1   
     9     4     5 1   
    10     4    32 1   
    11     5     6 1   
    12     5    33 1   
    13     5    34 1   
    14     6     8 1   
    15     6    35 1   
    16     6    36 1   
    17     7    16 1   
    18     7    22 1   
    19     7    37 1   
    20     8     9 ar  
    21     8    14 ar  
    22     9    10 ar  
    23     9    38 1   
    24    10    11 1   
    25    10    12 ar  
    26    12    13 ar  
    27    12    39 1   
    28    13    14 ar  
    29    13    40 1   
    30    14    41 1   
    31    15    17 ar  
    32    15    24 ar  
    33    16    18 1   
    34    16    42 1   
    35    16    43 1   
    36    17    19 ar  
    37    17    26 1   
    38    18    20 1   
    39    18    44 1   
    40    19    21 ar  
    41    19    45 1   
    42    20    22 1   
    43    20    26 1   
    44    20    46 1   
    45    21    23 ar  
    46    21    27 1   
    47    22    47 1   
    48    22    48 1   
    49    23    24 ar  
    50    23    49 1   
    51    24    25 1   
    52    25    50 1   
    53    25    51 1   
    54    26    52 1   
    55    26    53 1   
    56    27    54 1   
    57    27    55 1   
    58    27    56 1   
@<TRIPOS>SUBSTRUCTURE
     1 JSR         1 TEMP              0 ****  ****    0 ROOT
