@<TRIPOS>MOLECULE
JSR
   56    58     1     0     0
SMALL
No Charge or Current Charge


@<TRIPOS>ATOM
      1 C1           0.1470     3.5680    -0.2850 c3         1 JSR       0.157600
      2 O1          -0.7270     2.4670     0.0510 os         1 JSR      -0.456000
      3 C2           1.6080     3.1510     0.0260 c3         1 JSR       0.161800
      4 N2           2.0030     1.9480    -0.7440 n7         1 JSR      -0.868400
      5 C3           3.3100     1.3690    -0.3790 c3         1 JSR       0.162800
      6 C4           3.6110     0.1270    -1.2410 c3         1 JSR      -0.038100
      7 N1          -4.0590     3.1530     1.2230 n7         1 JSR      -0.851400
      8 C11          4.9560    -0.4970    -0.8920 ca         1 JSR      -0.050300
      9 C12          5.0370    -1.5170     0.0760 ca         1 JSR      -0.150000
     10 C13          6.2800    -2.0850     0.3980 ca         1 JSR       0.170000
     11 F13          6.3510    -3.0630     1.3270 f          1 JSR      -0.182000
     12 C14          7.4500    -1.6430    -0.2390 ca         1 JSR      -0.154000
     13 C15          7.3760    -0.6240    -1.2040 ca         1 JSR      -0.084000
     14 C16          6.1320    -0.0530    -1.5280 ca         1 JSR      -0.125000
     15 N1A         -2.9940    -1.9190     0.4540 nb         1 JSR      -0.748000
     16 C9          -2.7520     3.7100     0.7600 c5         1 JSR       0.120800
     17 C2A         -3.5900    -1.0430    -0.3850 ca         1 JSR       0.398300
     18 C10         -2.1400     2.6450    -0.2160 c5         1 JSR       0.171300
     19 C3A         -4.9000    -1.2250    -0.8680 ca         1 JSR      -0.217000
     20 C17         -2.8800     1.3550     0.2170 c5         1 JSR      -0.066700
     21 C4A         -5.6340    -2.3540    -0.4710 ca         1 JSR       0.000700
     22 C5          -4.3000     1.9480     0.3950 c5         1 JSR       0.152800
     23 C5A         -5.0040    -3.2580     0.3980 ca         1 JSR      -0.232000
     24 C6A         -3.7000    -2.9820     0.8120 ca         1 JSR       0.598900
     25 N6A         -3.0090    -3.7660     1.6420 nv         1 JSR      -1.050900
     26 C7A         -2.7740     0.1770    -0.7870 c3         1 JSR      -0.117700
     27 C8A         -7.0510    -2.5900    -0.9670 c3         1 JSR      -0.053800
     28 H1           0.0590     3.8220    -1.3490 h1         1 JSR       0.030200
     29 H1A         -0.1030     4.4610     0.3030 h1         1 JSR       0.030200
     30 H2           2.2760     3.9910    -0.2060 h1         1 JSR       0.038200
     31 H2A          1.6860     2.9580     1.1050 h1         1 JSR       0.038200
     32 HN2          1.2760     1.2420    -0.5710 hn         1 JSR       0.423000
     33 H3           4.1090     2.1080    -0.5290 h1         1 JSR       0.031700
     34 H3A          3.3170     1.0780     0.6800 h1         1 JSR       0.031700
     35 H4           2.8080    -0.6090    -1.1080 hc         1 JSR       0.057200
     36 H4A          3.5930     0.4130    -2.3000 hc         1 JSR       0.057200
     37 HN1         -4.8180     3.8360     1.0960 hn         1 JSR       0.412000
     38 H12          4.1410    -1.8700     0.5800 ha         1 JSR       0.131000
     39 H14          8.4080    -2.0880     0.0170 ha         1 JSR       0.131000
     40 H15          8.2800    -0.2760    -1.7000 ha         1 JSR       0.116000
     41 H16          6.0830     0.7360    -2.2750 ha         1 JSR       0.118000
     42 H6          -2.8950     4.6690     0.2420 h1         1 JSR       0.038700
     43 H2'A        -2.0970     3.8930     1.6230 h1         1 JSR       0.038700
     44 H9          -2.3110     2.8940    -1.2720 h1         1 JSR       0.033700
     45 H3AA        -5.3380    -0.4930    -1.5410 ha         1 JSR       0.120000
     46 H10         -2.4990     0.9950     1.1800 hc         1 JSR       0.098700
     47 H5          -4.9910     1.2510     0.8880 h1         1 JSR       0.037200
     48 H5'A        -4.7330     2.2260    -0.5780 h1         1 JSR       0.037200
     49 H5A         -5.5140    -4.1530     0.7400 ha         1 JSR       0.119000
     50 HN6A        -3.5360    -4.3950     2.2370 hn         1 JSR       0.467000
     51 HN6B        -2.1800    -3.3450     2.0430 hn         1 JSR       0.467000
     52 H7A         -1.7210    -0.1070    -0.9010 hc         1 JSR       0.056200
     53 H7AA        -3.0930     0.5140    -1.7810 hc         1 JSR       0.056200
     54 H8A         -7.0450    -3.1300    -1.9210 hc         1 JSR       0.046700
     55 H8AA        -7.6320    -3.1810    -0.2500 hc         1 JSR       0.046700
     56 H8AB        -7.5810    -1.6430    -1.1220 hc         1 JSR       0.046700
@<TRIPOS>BOND
     1     1     2 1   
     2     1     3 1   
     3     1    28 1   
     4     1    29 1   
     5     2    18 1   
     6     3     4 1   
     7     3    30 1   
     8     3    31 1   
     9     4     5 1   
    10     4    32 1   
    11     5     6 1   
    12     5    33 1   
    13     5    34 1   
    14     6     8 1   
    15     6    35 1   
    16     6    36 1   
    17     7    16 1   
    18     7    22 1   
    19     7    37 1   
    20     8     9 ar  
    21     8    14 ar  
    22     9    10 ar  
    23     9    38 1   
    24    10    11 1   
    25    10    12 ar  
    26    12    13 ar  
    27    12    39 1   
    28    13    14 ar  
    29    13    40 1   
    30    14    41 1   
    31    15    17 ar  
    32    15    24 ar  
    33    16    18 1   
    34    16    42 1   
    35    16    43 1   
    36    17    19 ar  
    37    17    26 1   
    38    18    20 1   
    39    18    44 1   
    40    19    21 ar  
    41    19    45 1   
    42    20    22 1   
    43    20    26 1   
    44    20    46 1   
    45    21    23 ar  
    46    21    27 1   
    47    22    47 1   
    48    22    48 1   
    49    23    24 ar  
    50    23    49 1   
    51    24    25 1   
    52    25    50 1   
    53    25    51 1   
    54    26    52 1   
    55    26    53 1   
    56    27    54 1   
    57    27    55 1   
    58    27    56 1   
@<TRIPOS>SUBSTRUCTURE
     1 JSR         1 TEMP              0 ****  ****    0 ROOT
