@<TRIPOS>MOLECULE
JSS
   56    58     1     0     0
SMALL
abcg2


@<TRIPOS>ATOM
      1 C1          -0.1010     3.5080    -0.5030 c3         1 JSS       0.157600
      2 O1          -0.9820     2.4750    -0.1280 os         1 JSS      -0.468000
      3 C2           1.2850     3.1580    -0.0100 c3         1 JSS       0.160800
      4 N2           1.7730     1.9450    -0.6350 n7         1 JSS      -0.864400
      5 C3           3.0620     1.5290    -0.1260 c3         1 JSS       0.160800
      6 C4           3.5220     0.2410    -0.8050 c3         1 JSS      -0.038100
      7 N1          -4.3960     2.9200     0.2130 n7         1 JSS      -0.864400
      8 C11          4.8500    -0.2180    -0.2740 ca         1 JSS      -0.051300
      9 C12          4.9120    -0.9780     0.8930 ca         1 JSS      -0.152000
     10 C13          6.1440    -1.3530     1.3910 ca         1 JSS       0.171000
     11 F13          6.1870    -2.0890     2.5150 f          1 JSS      -0.182000
     12 C14          7.3320    -1.0030     0.7790 ca         1 JSS      -0.153000
     13 C15          7.2640    -0.2470    -0.3830 ca         1 JSS      -0.084000
     14 C16          6.0380     0.1440    -0.9040 ca         1 JSS      -0.124000
     15 N1A         -3.4470    -1.6050     1.0090 nb         1 JSS      -0.752000
     16 C9          -3.1530     3.6170    -0.0840 c5         1 JSS       0.118800
     17 C2A         -2.9660    -1.2580    -0.1850 ca         1 JSS       0.395300
     18 C10         -2.2500     2.5420    -0.7330 c5         1 JSS       0.165300
     19 C3A         -3.2290    -1.9840    -1.3360 ca         1 JSS      -0.215000
     20 C17         -3.0170     1.2210    -0.5110 c5         1 JSS      -0.054700
     21 C4A         -4.0300    -3.1250    -1.2540 ca         1 JSS       0.001700
     22 C5          -4.0070     1.5740     0.5950 c5         1 JSS       0.154800
     23 C5A         -4.5380    -3.4750    -0.0170 ca         1 JSS      -0.233000
     24 C6A         -4.2200    -2.6840     1.0980 ca         1 JSS       0.596900
     25 N6A         -4.7380    -2.9740     2.3290 nv         1 JSS      -1.053900
     26 C7A         -2.1420    -0.0020    -0.2450 c3         1 JSS      -0.113700
     27 C8A         -4.3030    -3.9600    -2.4670 c3         1 JSS      -0.053800
     28 H1          -0.0870     3.6240    -1.5960 h1         1 JSS       0.030700
     29 H1A         -0.4080     4.4730    -0.0780 h1         1 JSS       0.030700
     30 H2           1.9540     3.9850    -0.2680 h1         1 JSS       0.037200
     31 H2A          1.2770     3.1000     1.0910 h1         1 JSS       0.037200
     32 HN2          1.1020     1.2040    -0.4660 hn         1 JSS       0.420000
     33 H3           3.7910     2.3210    -0.3260 h1         1 JSS       0.032200
     34 H3A          3.0620     1.3810     0.9660 h1         1 JSS       0.032200
     35 H4           2.7700    -0.5370    -0.6460 hc         1 JSS       0.056700
     36 H4A          3.5860     0.4080    -1.8820 hc         1 JSS       0.056700
     37 HN1         -4.9180     3.3890     0.9420 hn         1 JSS       0.415000
     38 H12          4.0060    -1.2780     1.4060 ha         1 JSS       0.130000
     39 H14          8.2810    -1.3120     1.1950 ha         1 JSS       0.131000
     40 H15          8.1800     0.0360    -0.8860 ha         1 JSS       0.117000
     41 H16          6.0040     0.7330    -1.8130 ha         1 JSS       0.118000
     42 H6          -3.3280     4.4760    -0.7350 h1         1 JSS       0.040700
     43 H2'A        -2.6470     3.9860     0.8200 h1         1 JSS       0.040700
     44 H9          -2.1260     2.7290    -1.8070 h1         1 JSS       0.044700
     45 H3AA        -2.8150    -1.6670    -2.2850 ha         1 JSS       0.121000
     46 H10         -3.5960     1.0330    -1.4200 hc         1 JSS       0.064700
     47 H5          -3.5100     1.5220     1.5760 h1         1 JSS       0.049700
     48 H5'A        -4.8690     0.9070     0.6270 h1         1 JSS       0.049700
     49 H5A         -5.1710    -4.3470     0.0980 ha         1 JSS       0.119000
     50 HN6A        -4.2680    -2.5540     3.1150 hn         1 JSS       0.466500
     51 HN6B        -5.0390    -3.9200     2.4940 hn         1 JSS       0.466500
     52 H7A         -1.6010     0.1120     0.6950 hc         1 JSS       0.063200
     53 H7AA        -1.3980    -0.0960    -1.0400 hc         1 JSS       0.063200
     54 H8A         -3.4980    -4.6820    -2.6200 hc         1 JSS       0.046367
     55 H8AA        -5.2310    -4.5230    -2.3700 hc         1 JSS       0.046367
     56 H8AB        -4.3630    -3.3490    -3.3680 hc         1 JSS       0.046367
@<TRIPOS>BOND
     1     1     2 1   
     2     1     3 1   
     3     1    28 1   
     4     1    29 1   
     5     2    18 1   
     6     3     4 1   
     7     3    30 1   
     8     3    31 1   
     9     4     5 1   
    10     4    32 1   
    11     5     6 1   
    12     5    33 1   
    13     5    34 1   
    14     6     8 1   
    15     6    35 1   
    16     6    36 1   
    17     7    16 1   
    18     7    22 1   
    19     7    37 1   
    20     8     9 ar  
    21     8    14 ar  
    22     9    10 ar  
    23     9    38 1   
    24    10    11 1   
    25    10    12 ar  
    26    12    13 ar  
    27    12    39 1   
    28    13    14 ar  
    29    13    40 1   
    30    14    41 1   
    31    15    17 ar  
    32    15    24 ar  
    33    16    18 1   
    34    16    42 1   
    35    16    43 1   
    36    17    19 ar  
    37    17    26 1   
    38    18    20 1   
    39    18    44 1   
    40    19    21 ar  
    41    19    45 1   
    42    20    22 1   
    43    20    26 1   
    44    20    46 1   
    45    21    23 ar  
    46    21    27 1   
    47    22    47 1   
    48    22    48 1   
    49    23    24 ar  
    50    23    49 1   
    51    24    25 1   
    52    25    50 1   
    53    25    51 1   
    54    26    52 1   
    55    26    53 1   
    56    27    54 1   
    57    27    55 1   
    58    27    56 1   
@<TRIPOS>SUBSTRUCTURE
     1 JSS         1 TEMP              0 ****  ****    0 ROOT
