@<TRIPOS>MOLECULE
JSS
   56    58     1     0     0
SMALL
No Charge or Current Charge


@<TRIPOS>ATOM
      1 C1          -0.1360     3.6330    -0.8440 c3         1 JSS       0.157600
      2 O1          -0.9980     2.5190    -0.5210 os         1 JSS      -0.468000
      3 C2           1.2590     3.3710    -0.2190 c3         1 JSS       0.160800
      4 N2           1.8450     2.1060    -0.7200 n7         1 JSS      -0.864400
      5 C3           3.0700     1.6620    -0.0310 c3         1 JSS       0.160800
      6 C4           3.5760     0.3350    -0.6290 c3         1 JSS      -0.038100
      7 N1          -4.1530     2.8270     0.5860 n7         1 JSS      -0.864400
      8 C11          4.8420    -0.1560     0.0620 ca         1 JSS      -0.051300
      9 C12          4.7590    -1.0270     1.1660 ca         1 JSS      -0.152000
     10 C13          5.9280    -1.4720     1.8020 ca         1 JSS       0.171000
     11 F13          5.8410    -2.3070     2.8600 f          1 JSS      -0.182000
     12 C14          7.1880    -1.0540     1.3460 ca         1 JSS      -0.153000
     13 C15          7.2790    -0.1830     0.2460 ca         1 JSS      -0.084000
     14 C16          6.1080     0.2640    -0.3930 ca         1 JSS      -0.124000
     15 N1A         -2.7500    -1.9620     0.6200 nb         1 JSS      -0.752000
     16 C9          -3.2080     3.6000    -0.2720 c5         1 JSS       0.118800
     17 C2A         -2.9670    -1.3740    -0.5780 ca         1 JSS       0.395300
     18 C10         -2.3480     2.5410    -1.0590 c5         1 JSS       0.165300
     19 C3A         -3.8670    -1.8950    -1.5280 ca         1 JSS      -0.215000
     20 C17         -3.0480     1.1930    -0.7000 c5         1 JSS      -0.054700
     21 C4A         -4.5760    -3.0720    -1.2380 ca         1 JSS       0.001700
     22 C5          -3.5170     1.5000     0.7440 c5         1 JSS       0.154800
     23 C5A         -4.3410    -3.6740     0.0070 ca         1 JSS      -0.233000
     24 C6A         -3.4300    -3.0690     0.8750 ca         1 JSS       0.596900
     25 N6A         -3.1230    -3.5560     2.0790 nv         1 JSS      -1.053900
     26 C7A         -2.1940    -0.0940    -0.8640 c3         1 JSS      -0.113700
     27 C8A         -5.5530    -3.6710    -2.2350 c3         1 JSS      -0.053800
     28 H1          -0.0330     3.7400    -1.9320 h1         1 JSS       0.030700
     29 H1A         -0.5350     4.5740    -0.4440 h1         1 JSS       0.030700
     30 H2           1.9200     4.2180    -0.4500 h1         1 JSS       0.037200
     31 H2A          1.1420     3.3320     0.8730 h1         1 JSS       0.037200
     32 HN2          1.1220     1.3860    -0.5920 hn         1 JSS       0.420000
     33 H3           3.8590     2.4200    -0.1290 h1         1 JSS       0.032200
     34 H3A          2.8750     1.5180     1.0410 h1         1 JSS       0.032200
     35 H4           2.7860    -0.4220    -0.5480 hc         1 JSS       0.056700
     36 H4A          3.7620     0.4720    -1.7010 hc         1 JSS       0.056700
     37 HN1         -4.2750     3.2850     1.5000 hn         1 JSS       0.415000
     38 H12          3.7910    -1.3580     1.5330 ha         1 JSS       0.130000
     39 H14          8.0890    -1.4030     1.8440 ha         1 JSS       0.131000
     40 H15          8.2530     0.1450    -0.1110 ha         1 JSS       0.117000
     41 H16          6.1860     0.9390    -1.2420 ha         1 JSS       0.118000
     42 H6          -3.7620     4.2570    -0.9580 h1         1 JSS       0.040700
     43 H2'A        -2.5730     4.2420     0.3530 h1         1 JSS       0.040700
     44 H9          -2.3130     2.7240    -2.1420 h1         1 JSS       0.044700
     45 H3AA        -4.0080    -1.3870    -2.4780 ha         1 JSS       0.121000
     46 H10         -3.9240     1.0630    -1.3470 hc         1 JSS       0.064700
     47 H5          -2.6640     1.5480     1.4380 h1         1 JSS       0.049700
     48 H5'A        -4.2250     0.7510     1.1250 h1         1 JSS       0.049700
     49 H5A         -4.8540    -4.5860     0.2940 ha         1 JSS       0.119000
     50 HN6A        -2.2890    -3.1600     2.4940 hn         1 JSS       0.466500
     51 HN6B        -3.2900    -4.5420     2.2450 hn         1 JSS       0.466500
     52 H7A         -1.3120    -0.0440    -0.2150 hc         1 JSS       0.063200
     53 H7AA        -1.8030    -0.1390    -1.8880 hc         1 JSS       0.063200
     54 H8A         -5.0390    -4.3520    -2.9230 hc         1 JSS       0.046367
     55 H8AA        -6.3430    -4.2390    -1.7280 hc         1 JSS       0.046367
     56 H8AB        -6.0400    -2.8920    -2.8330 hc         1 JSS       0.046367
@<TRIPOS>BOND
     1     1     2 1   
     2     1     3 1   
     3     1    28 1   
     4     1    29 1   
     5     2    18 1   
     6     3     4 1   
     7     3    30 1   
     8     3    31 1   
     9     4     5 1   
    10     4    32 1   
    11     5     6 1   
    12     5    33 1   
    13     5    34 1   
    14     6     8 1   
    15     6    35 1   
    16     6    36 1   
    17     7    16 1   
    18     7    22 1   
    19     7    37 1   
    20     8     9 ar  
    21     8    14 ar  
    22     9    10 ar  
    23     9    38 1   
    24    10    11 1   
    25    10    12 ar  
    26    12    13 ar  
    27    12    39 1   
    28    13    14 ar  
    29    13    40 1   
    30    14    41 1   
    31    15    17 ar  
    32    15    24 ar  
    33    16    18 1   
    34    16    42 1   
    35    16    43 1   
    36    17    19 ar  
    37    17    26 1   
    38    18    20 1   
    39    18    44 1   
    40    19    21 ar  
    41    19    45 1   
    42    20    22 1   
    43    20    26 1   
    44    20    46 1   
    45    21    23 ar  
    46    21    27 1   
    47    22    47 1   
    48    22    48 1   
    49    23    24 ar  
    50    23    49 1   
    51    24    25 1   
    52    25    50 1   
    53    25    51 1   
    54    26    52 1   
    55    26    53 1   
    56    27    54 1   
    57    27    55 1   
    58    27    56 1   
@<TRIPOS>SUBSTRUCTURE
     1 JSS         1 TEMP              0 ****  ****    0 ROOT
