@<TRIPOS>MOLECULE
JST
   32    33     1     0     0
SMALL
No Charge or Current Charge


@<TRIPOS>ATOM
      1 S1          -1.0660     0.3860     2.0600 ss         1 JST      -0.350200
      2 N1           1.4410    -1.3920     2.7530 n2         1 JST      -0.396400
      3 N2           0.4370    -1.2470     3.7000 nu         1 JST      -0.575500
      4 C1           2.7950    -0.4970    -0.5290 ca         1 JST      -0.076500
      5 C2           3.5500    -1.0390    -1.5850 ca         1 JST      -0.108000
      6 C3           3.7470    -2.4250    -1.6700 ca         1 JST       0.130000
      7 C4           3.2000    -3.2710    -0.6960 ca         1 JST      -0.108000
      8 C5           2.4460    -2.7330     0.3620 ca         1 JST      -0.076500
      9 C6           2.2130    -1.3400     0.4470 ca         1 JST      -0.115900
     10 C7           1.4420    -0.7680     1.6030 ce         1 JST       0.397900
     11 C8           0.6540     0.5310     1.3980 c6         1 JST      -0.011700
     12 C9          -0.7630    -0.5710     3.5430 c2         1 JST       0.634100
     13 C11         -2.9520     1.2400     5.2980 c3         1 JST      -0.034200
     14 C12         -2.5910     1.0810     6.7660 c2         1 JST      -0.207200
     15 C13         -1.6070     1.7390     7.3980 c2         1 JST      -0.312000
     16 HN2          0.4610    -1.7390     4.5970 hn         1 JST       0.517000
     17 H1           2.6790     0.5830    -0.4730 ha         1 JST       0.126000
     18 H2           3.9880    -0.3830    -2.3330 ha         1 JST       0.132500
     19 H4           3.3630    -4.3450    -0.7570 ha         1 JST       0.132500
     20 H5           2.0320    -3.4070     1.1100 ha         1 JST       0.126000
     21 H82          1.1600     1.3410     1.9390 h1         1 JST       0.094200
     22 H81          0.5920     0.8030     0.3360 h1         1 JST       0.094200
     23 H101        -3.3150     0.1100     3.4940 h1         1 JST       0.048700
     24 H102        -3.6690    -0.7790     4.9680 h1         1 JST       0.048700
     25 H111        -3.9540     1.6800     5.2190 hc         1 JST       0.049700
     26 H112        -2.2710     1.9470     4.8080 hc         1 JST       0.049700
     27 H12         -3.2100     0.3610     7.3070 ha         1 JST       0.162000
     28 H131        -1.4000     1.5750     8.4570 ha         1 JST       0.160000
     29 H132        -0.9730     2.4610     6.8810 ha         1 JST       0.160000
     30 N3          -1.6040    -0.6970     4.5000 n2         1 JST      -0.632900
     31 Cl1          4.6940    -3.0990    -2.9900 cl         1 JST      -0.196000
     32 C10         -2.9480    -0.0900     4.5100 c3         1 JST       0.136800
@<TRIPOS>BOND
     1     1    11 1   
     2     1    12 1   
     3     2     3 1   
     4     2    10 2   
     5     3    12 1   
     6     3    16 1   
     7     4     5 ar  
     8     4     9 ar  
     9     4    17 1   
    10     5     6 ar  
    11     5    18 1   
    12     6     7 ar  
    13     6    31 1   
    14     7     8 ar  
    15     7    19 1   
    16     8     9 ar  
    17     8    20 1   
    18     9    10 1   
    19    10    11 1   
    20    11    21 1   
    21    11    22 1   
    22    12    30 2   
    23    13    14 1   
    24    13    25 1   
    25    13    26 1   
    26    13    32 1   
    27    14    15 2   
    28    14    27 1   
    29    15    28 1   
    30    15    29 1   
    31    23    32 1   
    32    24    32 1   
    33    30    32 1   
@<TRIPOS>SUBSTRUCTURE
     1 JST         1 TEMP              0 ****  ****    0 ROOT
