@<TRIPOS>MOLECULE
JST
   32    33     1     0     0
SMALL
abcg2


@<TRIPOS>ATOM
      1 S1          -1.1040     0.3120     1.7540 ss         1 JST      -0.350200
      2 N1           1.6110    -0.7980     2.5500 n2         1 JST      -0.396400
      3 N2           0.9030    -0.1090     3.4690 nu         1 JST      -0.575500
      4 C1           2.3490    -0.9530    -0.9810 ca         1 JST      -0.076500
      5 C2           3.1080    -1.6860    -1.8810 ca         1 JST      -0.108000
      6 C3           3.7250    -2.8490    -1.4540 ca         1 JST       0.130000
      7 C4           3.5930    -3.2860    -0.1430 ca         1 JST      -0.108000
      8 C5           2.8340    -2.5450     0.7440 ca         1 JST      -0.076500
      9 C6           2.2000    -1.3650     0.3430 ca         1 JST      -0.115900
     10 C7           1.4170    -0.5740     1.3070 ce         1 JST       0.397900
     11 C8           0.4620     0.4820     0.8530 c6         1 JST      -0.011700
     12 C9          -0.4350     0.2440     3.3810 c2         1 JST       0.634100
     13 C11         -2.9220     1.4210     5.7290 c3         1 JST      -0.034200
     14 C12         -2.9100     0.3860     6.8060 c2         1 JST      -0.207200
     15 C13         -2.2140     0.4630     7.9350 c2         1 JST      -0.312000
     16 HN2          1.1810    -0.3420     4.4120 hn         1 JST       0.517000
     17 H1           1.8870    -0.0410    -1.3350 ha         1 JST       0.126000
     18 H2           3.2140    -1.3470    -2.9020 ha         1 JST       0.132500
     19 H4           4.0700    -4.2000     0.1830 ha         1 JST       0.132500
     20 H5           2.7240    -2.8950     1.7610 ha         1 JST       0.126000
     21 H82          0.8730     1.4770     1.0390 h1         1 JST       0.094200
     22 H81          0.2060     0.4130    -0.2010 h1         1 JST       0.094200
     23 H101        -2.6160     1.6430     3.6120 h1         1 JST       0.048700
     24 H102        -3.1070     0.0330     4.1030 h1         1 JST       0.048700
     25 H111        -3.9410     1.7990     5.6020 hc         1 JST       0.049700
     26 H112        -2.3000     2.2750     6.0130 hc         1 JST       0.049700
     27 H12         -3.5310    -0.4890     6.6280 ha         1 JST       0.162000
     28 H131        -2.2540    -0.3200     8.6820 ha         1 JST       0.160000
     29 H132        -1.5790     1.3120     8.1550 ha         1 JST       0.160000
     30 N3          -1.0840     0.4560     4.4440 n2         1 JST      -0.632900
     31 CL1          4.6700    -3.7750    -2.5700 cl         1 JST      -0.196000
     32 C10         -2.4610     0.8750     4.3820 c3         1 JST       0.136800
@<TRIPOS>BOND
     1     1    11 1   
     2     1    12 1   
     3     2     3 1   
     4     2    10 2   
     5     3    12 1   
     6     3    16 1   
     7     4     5 ar  
     8     4     9 ar  
     9     4    17 1   
    10     5     6 ar  
    11     5    18 1   
    12     6     7 ar  
    13     6    31 1   
    14     7     8 ar  
    15     7    19 1   
    16     8     9 ar  
    17     8    20 1   
    18     9    10 1   
    19    10    11 1   
    20    11    21 1   
    21    11    22 1   
    22    12    30 2   
    23    13    14 1   
    24    13    25 1   
    25    13    26 1   
    26    13    32 1   
    27    14    15 2   
    28    14    27 1   
    29    15    28 1   
    30    15    29 1   
    31    23    32 1   
    32    24    32 1   
    33    30    32 1   
@<TRIPOS>SUBSTRUCTURE
     1 JST         1 TEMP              0 ****  ****    0 ROOT
