@<TRIPOS>MOLECULE
JSW
   48    51     1     0     0
SMALL
No Charge or Current Charge


@<TRIPOS>ATOM
      1 C10         -0.0870     2.2970    -0.2760 c6         1 JSW      -0.131700
      2 C13          1.1120     1.4500    -0.7820 c          1 JSW       0.608100
      3 C17          4.1700     2.7080     0.6890 c5         1 JSW       0.113800
      4 C20          3.1790    -0.7240    -0.0760 ca         1 JSW      -0.036300
      5 C21          3.5140    -1.7760    -0.9540 ca         1 JSW      -0.154500
      6 C22          3.1950    -3.1050    -0.6330 ca         1 JSW       0.198500
      7 C24          2.5370    -3.4090     0.5660 ca         1 JSW      -0.193000
      8 C02         -5.8590    -0.1720    -0.1340 cc         1 JSW       0.402300
      9 C05         -3.8350     0.2610     0.2050 cc         1 JSW       0.671900
     10 C08         -1.4450     0.4980     0.9290 c6         1 JSW       0.216300
     11 C09         -0.6160     1.7940     1.0960 c6         1 JSW      -0.073900
     12 C11         -1.2600     2.4680    -1.2840 c6         1 JSW      -0.073900
     13 C12         -2.1290     1.1870    -1.3910 c6         1 JSW       0.216300
     14 C18          4.6070     1.2360     0.5290 c5         1 JSW      -0.089400
     15 C19          3.5190     0.7250    -0.4580 c5         1 JSW       0.163000
     16 C25          2.2000    -2.3730     1.4450 ca         1 JSW       0.198500
     17 C27          2.5170    -1.0420     1.1320 ca         1 JSW      -0.154500
     18 F23          3.5230    -4.0980    -1.4870 f          1 JSW      -0.172000
     19 F26          1.5620    -2.6560     2.6010 f          1 JSW      -0.172000
     20 N03         -5.6080    -0.5710     1.1020 nd         1 JSW      -0.341000
     21 N04         -4.2840    -0.2860     1.3230 nd         1 JSW      -0.443000
     22 N07         -2.5570     0.7120    -0.0420 nh         1 JSW      -0.759300
     23 N15          2.3690     1.6040    -0.1260 n          1 JSW      -0.324200
     24 N16          2.7060     2.6060     0.8810 n7         1 JSW      -0.557400
     25 O06         -4.7810     0.3620    -0.7560 os         1 JSW      -0.317000
     26 O14          0.9730     0.6370    -1.6890 o          1 JSW      -0.596100
     27 H1           0.3300     3.2840    -0.0450 hc         1 JSW       0.056700
     28 H2           4.6600     3.2060     1.5370 h1         1 JSW       0.057700
     29 H3           4.4010     3.2800    -0.2210 h1         1 JSW       0.057700
     30 H4           4.0190    -1.5640    -1.8930 ha         1 JSW       0.141000
     31 H5           2.2900    -4.4380     0.8100 ha         1 JSW       0.151000
     32 H6          -7.0580    -0.8780    -1.7660 hc         1 JSW       0.064700
     33 H7          -7.9420    -0.6970    -0.2370 hc         1 JSW       0.064700
     34 H8          -7.4950     0.7400    -1.1780 hc         1 JSW       0.064700
     35 H9          -0.7890    -0.3130     0.5760 h1         1 JSW       0.064700
     36 H10         -1.8220     0.1950     1.9160 h1         1 JSW       0.064700
     37 H11          0.2120     1.6170     1.7960 hc         1 JSW       0.060450
     38 H12         -1.2490     2.5660     1.5540 hc         1 JSW       0.060450
     39 H13         -1.8990     3.2980    -0.9550 hc         1 JSW       0.060450
     40 H14         -0.8780     2.7490    -2.2750 hc         1 JSW       0.060450
     41 H15         -2.9930     1.4110    -2.0330 h1         1 JSW       0.064700
     42 H16         -1.5620     0.3940    -1.9000 h1         1 JSW       0.064700
     43 H17          5.6210     1.1330     0.1280 hc         1 JSW       0.067700
     44 H18          4.5800     0.7220     1.4970 hc         1 JSW       0.067700
     45 H19          3.8170     0.8340    -1.5100 h1         1 JSW       0.073700
     46 H20          2.2430    -0.2570     1.8320 ha         1 JSW       0.141000
     47 H21          2.3010     3.5170     0.6200 hn         1 JSW       0.402000
     48 C01         -7.1620    -0.2570    -0.8690 c3         1 JSW      -0.114400
@<TRIPOS>BOND
     1     1     2 1   
     2     1    11 1   
     3     1    12 1   
     4     1    27 1   
     5     2    23 1   
     6     2    26 2   
     7     3    14 1   
     8     3    24 1   
     9     3    28 1   
    10     3    29 1   
    11     4     5 ar  
    12     4    15 1   
    13     4    17 ar  
    14     5     6 ar  
    15     5    30 1   
    16     6     7 ar  
    17     6    18 1   
    18     7    16 ar  
    19     7    31 1   
    20     8    20 2   
    21     8    25 1   
    22     8    48 1   
    23     9    21 2   
    24     9    22 1   
    25     9    25 1   
    26    10    11 1   
    27    10    22 1   
    28    10    35 1   
    29    10    36 1   
    30    11    37 1   
    31    11    38 1   
    32    12    13 1   
    33    12    39 1   
    34    12    40 1   
    35    13    22 1   
    36    13    41 1   
    37    13    42 1   
    38    14    15 1   
    39    14    43 1   
    40    14    44 1   
    41    15    23 1   
    42    15    45 1   
    43    16    17 ar  
    44    16    19 1   
    45    17    46 1   
    46    20    21 1   
    47    23    24 1   
    48    24    47 1   
    49    32    48 1   
    50    33    48 1   
    51    34    48 1   
@<TRIPOS>SUBSTRUCTURE
     1 JSW         1 TEMP              0 ****  ****    0 ROOT
