@<TRIPOS>MOLECULE
JSW
   48    51     1     0     0
SMALL
bcc


@<TRIPOS>ATOM
      1 C10          0.0250     2.5100    -0.3480 c6         1 JSW      -0.131700
      2 C13          1.1020     1.5390    -0.7980 c          1 JSW       0.675100
      3 C17          4.0830     2.5620     0.8080 c5         1 JSW       0.113800
      4 C20          2.9140    -0.7800    -0.1200 ca         1 JSW      -0.036300
      5 C21          3.2440    -1.7960    -1.0040 ca         1 JSW      -0.172500
      6 C22          2.8730    -3.0920    -0.6970 ca         1 JSW       0.163400
      7 C24          2.1800    -3.4210     0.4500 ca         1 JSW      -0.211000
      8 C02         -5.5050    -0.4570    -0.0750 cc         1 JSW       0.446700
      9 C05         -3.5600     0.3120     0.2740 cc         1 JSW       0.716300
     10 C08         -1.3640     0.8840     1.0060 c6         1 JSW       0.216300
     11 C09         -0.5090     2.1380     1.0420 c6         1 JSW      -0.073900
     12 C11         -1.1410     2.5880    -1.3300 c6         1 JSW      -0.073900
     13 C12         -2.0550     1.3710    -1.3170 c6         1 JSW       0.216300
     14 C18          4.4620     1.1170     0.5400 c5         1 JSW      -0.089400
     15 C19          3.3470     0.6360    -0.4050 c5         1 JSW       0.163000
     16 C25          1.8690    -2.3780     1.3050 ca         1 JSW       0.163400
     17 C27          2.2220    -1.0700     1.0520 ca         1 JSW      -0.172500
     18 F23          3.1920    -4.0730    -1.5520 f          1 JSW      -0.136900
     19 F26          1.1980    -2.6610     2.4300 f          1 JSW      -0.136900
     20 N03         -5.1500    -0.8620     1.0830 nd         1 JSW      -0.341000
     21 N04         -3.8800    -0.3810     1.3230 nd         1 JSW      -0.443000
     22 N07         -2.4500     1.0350     0.0490 nh         1 JSW      -0.759300
     23 N15          2.2820     1.5980    -0.1610 n          1 JSW      -0.391200
     24 N16          2.6240     2.4940     0.8890 n7         1 JSW      -0.502200
     25 O06         -4.5330     0.2990    -0.6500 os         1 JSW      -0.405800
     26 O14          0.9330     0.7190    -1.6960 o          1 JSW      -0.596100
     27 H1           0.4650     3.5120    -0.2870 hc         1 JSW       0.056700
     28 H2           4.4860     2.9410     1.7460 h1         1 JSW       0.057700
     29 H3           4.4240     3.2090    -0.0080 h1         1 JSW       0.057700
     30 H4           3.7770    -1.5830    -1.9220 ha         1 JSW       0.159000
     31 H5           1.8930    -4.4400     0.6700 ha         1 JSW       0.169000
     32 H6          -6.5610    -1.2140    -1.7600 hc         1 JSW       0.064700
     33 H7          -7.4210    -1.3110    -0.2180 hc         1 JSW       0.064700
     34 H8          -7.2630     0.2400    -1.0520 hc         1 JSW       0.064700
     35 H9          -0.7570     0.0040     0.7590 h1         1 JSW       0.064700
     36 H10         -1.7880     0.7100     1.9930 h1         1 JSW       0.064700
     37 H11          0.3030     1.9950     1.7560 hc         1 JSW       0.060450
     38 H12         -1.1100     2.9680     1.4170 hc         1 JSW       0.060450
     39 H13         -1.7320     3.4700    -1.0710 hc         1 JSW       0.060450
     40 H14         -0.7830     2.7420    -2.3490 hc         1 JSW       0.060450
     41 H15         -2.9420     1.6050    -1.9030 h1         1 JSW       0.064700
     42 H16         -1.5610     0.5170    -1.7860 h1         1 JSW       0.064700
     43 H17          5.4460     1.0120     0.0890 hc         1 JSW       0.067700
     44 H18          4.4520     0.5430     1.4670 hc         1 JSW       0.067700
     45 H19          3.6720     0.7100    -1.4450 h1         1 JSW       0.073700
     46 H20          1.9670    -0.2900     1.7600 ha         1 JSW       0.159000
     47 H21          2.2350     3.4030     0.6610 hn         1 JSW       0.346800
     48 C01         -6.7560    -0.6970    -0.8200 c3         1 JSW      -0.114400
@<TRIPOS>BOND
     1     1     2 1   
     2     1    11 1   
     3     1    12 1   
     4     1    27 1   
     5     2    23 1   
     6     2    26 2   
     7     3    14 1   
     8     3    24 1   
     9     3    28 1   
    10     3    29 1   
    11     4     5 ar  
    12     4    15 1   
    13     4    17 ar  
    14     5     6 ar  
    15     5    30 1   
    16     6     7 ar  
    17     6    18 1   
    18     7    16 ar  
    19     7    31 1   
    20     8    20 2   
    21     8    25 1   
    22     8    48 1   
    23     9    21 2   
    24     9    22 1   
    25     9    25 1   
    26    10    11 1   
    27    10    22 1   
    28    10    35 1   
    29    10    36 1   
    30    11    37 1   
    31    11    38 1   
    32    12    13 1   
    33    12    39 1   
    34    12    40 1   
    35    13    22 1   
    36    13    41 1   
    37    13    42 1   
    38    14    15 1   
    39    14    43 1   
    40    14    44 1   
    41    15    23 1   
    42    15    45 1   
    43    16    17 ar  
    44    16    19 1   
    45    17    46 1   
    46    20    21 1   
    47    23    24 1   
    48    24    47 1   
    49    32    48 1   
    50    33    48 1   
    51    34    48 1   
@<TRIPOS>SUBSTRUCTURE
     1 JSW         1 TEMP              0 ****  ****    0 ROOT
