@<TRIPOS>MOLECULE
JSX
   25    26     1     0     0
SMALL
abcg2


@<TRIPOS>ATOM
      1 C            4.0330     0.3870     0.0390 ca         1 JSX       0.111100
      2 O            5.3510     0.6670     0.0130 oh         1 JSX      -0.548100
      3 C1           3.6200    -0.8550    -0.4370 ca         1 JSX      -0.180000
      4 C10         -2.4630    -0.0380    -0.1770 ca         1 JSX      -0.139600
      5 C11         -3.5140     1.0310    -0.4620 c          1 JSX       0.713600
      6 C12         -1.1100     0.2830    -0.1860 ca         1 JSX      -0.070000
      7 C2           2.2770    -1.1880    -0.4260 ca         1 JSX      -0.072000
      8 C3           3.0810     1.2820     0.5200 ca         1 JSX      -0.180000
      9 C4           1.7400     0.9330     0.5240 ca         1 JSX      -0.072000
     10 C5           1.3060    -0.3070     0.0540 cp         1 JSX      -0.026000
     11 C6          -0.1250    -0.6730     0.0640 cp         1 JSX      -0.084000
     12 C7          -0.5270    -1.9850     0.3240 ca         1 JSX      -0.124000
     13 C8          -1.8730    -2.3200     0.3300 ca         1 JSX      -0.151000
     14 C9          -2.8380    -1.3530     0.0840 ca         1 JSX      -0.076000
     15 O1          -3.0930     2.1770    -0.7130 o          1 JSX      -0.720000
     16 O2          -4.7040     0.6660    -0.4200 o          1 JSX      -0.720000
     17 H            5.5150     1.5520     0.3570 ho         1 JSX       0.455000
     18 H1           4.3520    -1.5540    -0.8230 ha         1 JSX       0.107500
     19 H8          -0.8230     1.3020    -0.4140 ha         1 JSX       0.129000
     20 H2           1.9820    -2.1520    -0.8230 ha         1 JSX       0.120000
     21 H3           3.3840     2.2490     0.9030 ha         1 JSX       0.107500
     22 H4           1.0220     1.6410     0.9210 ha         1 JSX       0.120000
     23 H5           0.2130    -2.7460     0.5400 ha         1 JSX       0.084000
     24 H6          -2.1680    -3.3400     0.5400 ha         1 JSX       0.086000
     25 H7          -3.8860    -1.6200     0.0970 ha         1 JSX       0.127000
@<TRIPOS>BOND
     1     1     2 1   
     2     1     3 ar  
     3     1     8 ar  
     4     2    17 1   
     5     3     7 ar  
     6     3    18 1   
     7     4     5 1   
     8     4     6 ar  
     9     4    14 ar  
    10     5    15 1   
    11     5    16 1   
    12     6    11 ar  
    13     6    19 1   
    14     7    10 ar  
    15     7    20 1   
    16     8     9 ar  
    17     8    21 1   
    18     9    10 ar  
    19     9    22 1   
    20    10    11 1   
    21    11    12 ar  
    22    12    13 ar  
    23    12    23 1   
    24    13    14 ar  
    25    13    24 1   
    26    14    25 1   
@<TRIPOS>SUBSTRUCTURE
     1 JSX         1 TEMP              0 ****  ****    0 ROOT
