@<TRIPOS>MOLECULE
JSX
   25    26     1     0     0
SMALL
No Charge or Current Charge


@<TRIPOS>ATOM
      1 C            4.0830     0.3780     0.0310 ca         1 JSX       0.111100
      2 O            5.4050     0.7030     0.0180 oh         1 JSX      -0.548100
      3 C1           3.6690    -0.8740    -0.4410 ca         1 JSX      -0.180000
      4 C10         -2.5060    -0.0270    -0.1820 ca         1 JSX      -0.139600
      5 C11         -3.5590     1.0340    -0.4580 c          1 JSX       0.713600
      6 C12         -1.1290     0.2990    -0.1890 ca         1 JSX      -0.070000
      7 C2           2.3050    -1.2160    -0.4310 ca         1 JSX      -0.072000
      8 C3           3.1360     1.2930     0.5150 ca         1 JSX      -0.180000
      9 C4           1.7710     0.9520     0.5250 ca         1 JSX      -0.072000
     10 C5           1.3260    -0.3100     0.0520 cp         1 JSX      -0.026000
     11 C6          -0.1270    -0.6740     0.0630 cp         1 JSX      -0.084000
     12 C7          -0.5440    -2.0020     0.3230 ca         1 JSX      -0.124000
     13 C8          -1.9050    -2.3420     0.3340 ca         1 JSX      -0.151000
     14 C9          -2.8810    -1.3640     0.0830 ca         1 JSX      -0.076000
     15 O1          -3.1930     2.1820    -0.6720 o          1 JSX      -0.720000
     16 O2          -4.7370     0.7050    -0.4560 o          1 JSX      -0.720000
     17 H            5.5050     1.6090     0.3820 ho         1 JSX       0.455000
     18 H1           4.4020    -1.5820    -0.8190 ha         1 JSX       0.107500
     19 H8          -0.8260     1.3210    -0.4060 ha         1 JSX       0.129000
     20 H2           2.0030    -2.1880    -0.8130 ha         1 JSX       0.120000
     21 H3           3.4470     2.2660     0.8870 ha         1 JSX       0.107500
     22 H4           1.0530     1.6680     0.9170 ha         1 JSX       0.120000
     23 H5           0.1920    -2.7740     0.5330 ha         1 JSX       0.084000
     24 H6          -2.2060    -3.3660     0.5390 ha         1 JSX       0.086000
     25 H7          -3.9300    -1.6500     0.0960 ha         1 JSX       0.127000
@<TRIPOS>BOND
     1     1     2 1   
     2     1     3 ar  
     3     1     8 ar  
     4     2    17 1   
     5     3     7 ar  
     6     3    18 1   
     7     4     5 1   
     8     4     6 ar  
     9     4    14 ar  
    10     5    15 1   
    11     5    16 1   
    12     6    11 ar  
    13     6    19 1   
    14     7    10 ar  
    15     7    20 1   
    16     8     9 ar  
    17     8    21 1   
    18     9    10 ar  
    19     9    22 1   
    20    10    11 1   
    21    11    12 ar  
    22    12    13 ar  
    23    12    23 1   
    24    13    14 ar  
    25    13    24 1   
    26    14    25 1   
@<TRIPOS>SUBSTRUCTURE
     1 JSX         1 TEMP              0 ****  ****    0 ROOT
