@<TRIPOS>MOLECULE
JSY
   28    29     1     0     0
SMALL
bcc


@<TRIPOS>ATOM
      1 C4          13.2200    34.4420   -15.7210 ca         1 JSY       0.689900
      2 C7          12.8800    35.7370   -13.9060 ca         1 JSY       0.477600
      3 C8          16.7470    37.5190   -14.9960 ca         1 JSY       0.154600
      4 C10         18.1220    37.4140   -14.8070 ca         1 JSY      -0.156000
      5 C13         18.8440    38.4820   -14.2950 ca         1 JSY      -0.106000
      6 C1          14.8460    35.9390   -15.2280 ca         1 JSY       0.714200
      7 N2          14.3950    34.9630   -16.0230 nb         1 JSY      -0.793000
      8 C3          14.0940    36.3560   -14.1190 ca         1 JSY      -0.426600
      9 N5          16.0580    36.4420   -15.5680 nu         1 JSY      -0.756300
     10 N6          12.4260    34.7710   -14.7200 nb         1 JSY      -0.746000
     11 C9          18.2210    39.6750   -13.9400 ca         1 JSY      -0.089300
     12 C11         16.1140    38.7180   -14.6700 ca         1 JSY      -0.156000
     13 C12         16.8450    39.7670   -14.1360 ca         1 JSY      -0.106000
     14 C14         12.0090    36.1120   -12.7510 c3         1 JSY      -0.150400
     15 H1          12.8700    33.6510   -16.3770 h5         1 JSY       0.045100
     16 H2          18.6290    36.4910   -15.0610 ha         1 JSY       0.139500
     17 H3          19.9140    38.3750   -14.1600 ha         1 JSY       0.132500
     18 H4          19.0580    41.6500   -14.1050 hc         1 JSY       0.043033
     19 H5          18.5320    41.2320   -12.4850 hc         1 JSY       0.043033
     20 H6          20.0190    40.5430   -13.1330 hc         1 JSY       0.043033
     21 H7          14.4470    37.1170   -13.4400 ha         1 JSY       0.156000
     22 H8          16.5420    35.9170   -16.2810 hn         1 JSY       0.456800
     23 H9          15.0550    38.8460   -14.8480 ha         1 JSY       0.139500
     24 H10         16.3290    40.6860   -13.8840 ha         1 JSY       0.132500
     25 H11         11.8190    35.2440   -12.1190 hc         1 JSY       0.054700
     26 H12         12.4570    36.8940   -12.1410 hc         1 JSY       0.054700
     27 H13         11.0400    36.4660   -13.1070 hc         1 JSY       0.054700
     28 C15         19.0000    40.8320   -13.3850 c3         1 JSY      -0.044800
@<TRIPOS>BOND
     1     1     7 ar  
     2     1    10 ar  
     3     1    15 1   
     4     2     8 ar  
     5     2    10 ar  
     6     2    14 1   
     7     3     4 ar  
     8     3     9 1   
     9     3    12 ar  
    10     4     5 ar  
    11     4    16 1   
    12     5    11 ar  
    13     5    17 1   
    14     6     7 ar  
    15     6     8 ar  
    16     6     9 1   
    17     8    21 1   
    18     9    22 1   
    19    11    13 ar  
    20    11    28 1   
    21    12    13 ar  
    22    12    23 1   
    23    13    24 1   
    24    14    25 1   
    25    14    26 1   
    26    14    27 1   
    27    18    28 1   
    28    19    28 1   
    29    20    28 1   
@<TRIPOS>SUBSTRUCTURE
     1 JSY         1 TEMP              0 ****  ****    0 ROOT
