@<TRIPOS>MOLECULE
JSY
   28    29     1     0     0
SMALL
No Charge or Current Charge


@<TRIPOS>ATOM
      1 C4          13.1440    34.5200   -15.8690 ca         1 JSY       0.163900
      2 C7          12.7610    35.6940   -13.9350 ca         1 JSY       0.149300
      3 C8          16.8030    37.5010   -14.8940 ca         1 JSY       0.293000
      4 C10         18.2060    37.4460   -14.8480 ca         1 JSY      -0.138000
      5 C13         18.9500    38.5470   -14.3880 ca         1 JSY      -0.088000
      6 C1          14.8140    35.9120   -15.1580 ca         1 JSY       0.385900
      7 N2          14.3810    35.0230   -16.0650 nb         1 JSY      -0.267000
      8 C3          14.0360    36.2730   -14.0500 ca         1 JSY      -0.278000
      9 N5          16.0950    36.3950   -15.3710 nu         1 JSY      -0.949900
     10 N6          12.3090    34.8130   -14.8500 nb         1 JSY      -0.220000
     11 C9          18.2940    39.7230   -13.9780 ca         1 JSY      -0.089300
     12 C11         16.1500    38.6840   -14.5030 ca         1 JSY      -0.138000
     13 C12         16.8900    39.7880   -14.0440 ca         1 JSY      -0.088000
     14 C14         11.8440    36.0160   -12.7700 c3         1 JSY      -0.150400
     15 H1          12.7850    33.8030   -16.6060 h5         1 JSY       0.045100
     16 H2          18.7250    36.5440   -15.1610 ha         1 JSY       0.121500
     17 H3          20.0360    38.4860   -14.3520 ha         1 JSY       0.114500
     18 H4          19.3580    41.5820   -14.3160 hc         1 JSY       0.043033
     19 H5          18.5300    41.5050   -12.7520 hc         1 JSY       0.043033
     20 H6          20.0290    40.6010   -13.0010 hc         1 JSY       0.043033
     21 H7          14.4060    36.9550   -13.2930 ha         1 JSY       0.138000
     22 H8          16.6340    35.7990   -15.9990 hn         1 JSY       0.512000
     23 H9          15.0700    38.7620   -14.5730 ha         1 JSY       0.121500
     24 H10         16.3710    40.6970   -13.7460 ha         1 JSY       0.114500
     25 H11         11.9440    35.2650   -11.9780 hc         1 JSY       0.054700
     26 H12         12.0790    36.9950   -12.3370 hc         1 JSY       0.054700
     27 H13         10.7930    36.0370   -13.0830 hc         1 JSY       0.054700
     28 C15         19.0960    40.9170   -13.4840 c3         1 JSY      -0.044800
@<TRIPOS>BOND
     1     1     7 ar  
     2     1    10 ar  
     3     1    15 1   
     4     2     8 ar  
     5     2    10 ar  
     6     2    14 1   
     7     3     4 ar  
     8     3     9 1   
     9     3    12 ar  
    10     4     5 ar  
    11     4    16 1   
    12     5    11 ar  
    13     5    17 1   
    14     6     7 ar  
    15     6     8 ar  
    16     6     9 1   
    17     8    21 1   
    18     9    22 1   
    19    11    13 ar  
    20    11    28 1   
    21    12    13 ar  
    22    12    23 1   
    23    13    24 1   
    24    14    25 1   
    25    14    26 1   
    26    14    27 1   
    27    18    28 1   
    28    19    28 1   
    29    20    28 1   
@<TRIPOS>SUBSTRUCTURE
     1 JSY         1 TEMP              0 ****  ****    0 ROOT
