@<TRIPOS>MOLECULE
JSZ
   49    50     1     0     0
SMALL
bcc


@<TRIPOS>ATOM
      1 C1           4.2570    -1.4000    -0.0380 c          1 JSZ       0.692300
      2 N1          -5.6960    -0.9870    -0.2480 n7         1 JSZ      -0.796200
      3 O1           4.1050    -2.5990    -0.0720 o          1 JSZ      -0.535000
      4 C2           6.6120    -1.6120     0.0470 c3         1 JSZ       0.145400
      5 O2           5.4300    -0.7950     0.0200 os         1 JSZ      -0.406900
      6 C3           7.8030    -0.6870     0.0880 c3         1 JSZ      -0.097100
      7 O3           3.4860     0.8860    -0.0160 os         1 JSZ      -0.139200
      8 C4           3.1540    -0.4390    -0.0560 cc         1 JSZ      -0.077100
      9 C5           1.8050    -0.6240    -0.1010 cd         1 JSZ       0.001600
     10 O5          -3.0470    -1.2770     0.9310 oh         1 JSZ      -0.563800
     11 C6           1.0300    -1.8930    -0.1640 c3         1 JSZ      -0.040900
     12 C7           1.2550     0.7030    -0.0870 ca         1 JSZ      -0.176800
     13 C8           2.3370     1.5770    -0.0350 ca         1 JSZ       0.118100
     14 C9           2.2190     2.9600    -0.0020 ca         1 JSZ      -0.172000
     15 C10          0.9260     3.4450    -0.0240 ca         1 JSZ      -0.056000
     16 C11         -0.1980     2.6050    -0.0750 ca         1 JSZ      -0.264000
     17 C12         -0.0510     1.2260    -0.1090 ca         1 JSZ       0.211100
     18 C13         -2.3830     0.8150    -0.1030 c3         1 JSZ       0.102400
     19 C14         -3.3160    -0.3840    -0.1210 c3         1 JSZ       0.146100
     20 C15         -4.7600     0.1100    -0.1270 c3         1 JSZ       0.122800
     21 C16         -7.0930    -0.5680    -0.3160 c3         1 JSZ       0.173500
     22 C17         -7.9410    -1.7500    -0.7640 c3         1 JSZ      -0.091100
     23 C18         -7.5730    -0.0530     1.0350 c3         1 JSZ      -0.091100
     24 HN1         -5.4790    -1.4890    -1.1020 hn         1 JSZ       0.357800
     25 H2           6.5890    -2.2600     0.9260 h1         1 JSZ       0.048700
     26 H2A          6.6390    -2.2480    -0.8400 h1         1 JSZ       0.048700
     27 H3           7.8420    -0.0470    -0.7930 hc         1 JSZ       0.047700
     28 H3A          7.7930    -0.0590     0.9780 hc         1 JSZ       0.047700
     29 H3B          8.7170    -1.2810     0.1090 hc         1 JSZ       0.047700
     30 HO5         -3.3980    -0.9040     1.7470 ho         1 JSZ       0.404000
     31 H6           0.3000    -1.9400     0.6440 hc         1 JSZ       0.062367
     32 H6A          0.4680    -1.9440    -1.0970 hc         1 JSZ       0.062367
     33 H6B          1.6720    -2.7650    -0.1040 hc         1 JSZ       0.062367
     34 H9           3.0780     3.6140     0.0390 ha         1 JSZ       0.155000
     35 H10          0.7630     4.5140     0.0000 ha         1 JSZ       0.132000
     36 H11         -1.1780     3.0610    -0.0900 ha         1 JSZ       0.135000
     37 H13         -2.5360     1.4070     0.8080 h1         1 JSZ       0.039200
     38 H13A        -2.5940     1.4640    -0.9600 h1         1 JSZ       0.039200
     39 H14         -3.1320    -0.9460    -1.0440 h1         1 JSZ       0.082700
     40 H15         -4.8750     0.8550    -0.9300 h1         1 JSZ       0.033200
     41 H15A        -4.9470     0.6440     0.8100 h1         1 JSZ       0.033200
     42 H16         -7.2240     0.2430    -1.0530 h1         1 JSZ       0.015700
     43 H17         -7.8850    -2.5650    -0.0400 hc         1 JSZ       0.039200
     44 H17A        -8.9860    -1.4570    -0.8620 hc         1 JSZ       0.039200
     45 H17B        -7.6140    -2.1340    -1.7330 hc         1 JSZ       0.039200
     46 H18         -8.6260     0.2260     0.9830 hc         1 JSZ       0.039200
     47 H18A        -7.4630    -0.8270     1.7980 hc         1 JSZ       0.039200
     48 H18B        -7.0220     0.8280     1.3660 hc         1 JSZ       0.039200
     49 O4          -1.0510     0.3410    -0.1590 os         1 JSZ      -0.294900
@<TRIPOS>BOND
     1     1     3 2   
     2     1     5 1   
     3     1     8 1   
     4     2    20 1   
     5     2    21 1   
     6     2    24 1   
     7     4     5 1   
     8     4     6 1   
     9     4    25 1   
    10     4    26 1   
    11     6    27 1   
    12     6    28 1   
    13     6    29 1   
    14     7     8 1   
    15     7    13 1   
    16     8     9 2   
    17     9    11 1   
    18     9    12 1   
    19    10    19 1   
    20    10    30 1   
    21    11    31 1   
    22    11    32 1   
    23    11    33 1   
    24    12    13 ar  
    25    12    17 ar  
    26    13    14 ar  
    27    14    15 ar  
    28    14    34 1   
    29    15    16 ar  
    30    15    35 1   
    31    16    17 ar  
    32    16    36 1   
    33    17    49 1   
    34    18    19 1   
    35    18    37 1   
    36    18    38 1   
    37    18    49 1   
    38    19    20 1   
    39    19    39 1   
    40    20    40 1   
    41    20    41 1   
    42    21    22 1   
    43    21    23 1   
    44    21    42 1   
    45    22    43 1   
    46    22    44 1   
    47    22    45 1   
    48    23    46 1   
    49    23    47 1   
    50    23    48 1   
@<TRIPOS>SUBSTRUCTURE
     1 JSZ         1 TEMP              0 ****  ****    0 ROOT
