@<TRIPOS>MOLECULE
JSZ
   49    50     1     0     0
SMALL
No Charge or Current Charge


@<TRIPOS>ATOM
      1 C1           4.2820    -1.3570    -0.0760 c          1 JSZ       0.643300
      2 N1          -5.7280    -1.0030    -0.2600 n7         1 JSZ      -0.851400
      3 O1           4.0310    -2.5490    -0.2120 o          1 JSZ      -0.486000
      4 C2           6.6510    -1.8160    -0.0620 c3         1 JSZ       0.168600
      5 O2           5.5660    -0.8760     0.0060 os         1 JSZ      -0.430100
      6 C3           7.9590    -1.0180     0.0550 c3         1 JSZ      -0.097100
      7 O3           3.6060     1.0590     0.1200 os         1 JSZ      -0.139200
      8 C4           3.2520    -0.2870    -0.0020 cc         1 JSZ      -0.077100
      9 C5           1.8680    -0.4320    -0.0480 cd         1 JSZ       0.001600
     10 O5          -3.3040    -1.0890     0.8200 oh         1 JSZ      -0.626000
     11 C6           1.0840    -1.7220    -0.1470 c3         1 JSZ      -0.040900
     12 C7           1.3220     0.9010     0.0210 ca         1 JSZ      -0.176800
     13 C8           2.4070     1.7320     0.1250 ca         1 JSZ       0.118100
     14 C9           2.2640     3.1200     0.2190 ca         1 JSZ      -0.154000
     15 C10          0.9630     3.6600     0.2000 ca         1 JSZ      -0.038000
     16 C11         -0.1600     2.8070     0.0840 ca         1 JSZ      -0.246000
     17 C12          0.0080     1.4030    -0.0100 ca         1 JSZ       0.211100
     18 C13         -2.4220     0.9960    -0.1700 c3         1 JSZ       0.125600
     19 C14         -3.3560    -0.2310    -0.3290 c3         1 JSZ       0.169300
     20 C15         -4.8430     0.1700    -0.5110 c3         1 JSZ       0.122800
     21 C16         -7.1770    -0.7320    -0.2420 c3         1 JSZ       0.173500
     22 C17         -7.9260    -2.0720    -0.3780 c3         1 JSZ      -0.091100
     23 C18         -7.5800     0.0170     1.0470 c3         1 JSZ      -0.091100
     24 HN1         -5.5600    -1.6820    -1.0150 hn         1 JSZ       0.413000
     25 H2           6.5920    -2.5440     0.7590 h1         1 JSZ       0.048700
     26 H2A          6.6390    -2.3610    -1.0150 h1         1 JSZ       0.048700
     27 H3           8.0440    -0.2940    -0.7650 hc         1 JSZ       0.047700
     28 H3A          7.9980    -0.4760     1.0070 hc         1 JSZ       0.047700
     29 H3B          8.8210    -1.6930     0.0080 hc         1 JSZ       0.047700
     30 HO5         -4.2460    -1.3840     0.8920 ho         1 JSZ       0.443000
     31 H6           0.0770    -1.6240     0.2710 hc         1 JSZ       0.062367
     32 H6A          0.9860    -2.0430    -1.1900 hc         1 JSZ       0.062367
     33 H6B          1.5630    -2.5310     0.4140 hc         1 JSZ       0.062367
     34 H9           3.1360     3.7640     0.3020 ha         1 JSZ       0.137000
     35 H10          0.8230     4.7370     0.2710 ha         1 JSZ       0.114000
     36 H11         -1.1480     3.2570     0.0660 ha         1 JSZ       0.117000
     37 H13         -2.6730     1.5300     0.7560 h1         1 JSZ       0.039200
     38 H13A        -2.5790     1.6770    -1.0160 h1         1 JSZ       0.039200
     39 H14         -3.0450    -0.7870    -1.2250 h1         1 JSZ       0.082700
     40 H15         -4.9940     0.5670    -1.5240 h1         1 JSZ       0.033200
     41 H15A        -5.0670     0.9780     0.1970 h1         1 JSZ       0.033200
     42 H16         -7.4500    -0.1120    -1.1070 h1         1 JSZ       0.015700
     43 H17         -7.6910    -2.7390     0.4610 hc         1 JSZ       0.039200
     44 H17A        -9.0100    -1.9060    -0.3910 hc         1 JSZ       0.039200
     45 H17B        -7.6520    -2.5780    -1.3110 hc         1 JSZ       0.039200
     46 H18         -8.6670     0.1510     1.0870 hc         1 JSZ       0.039200
     47 H18A        -7.2720    -0.5450     1.9370 hc         1 JSZ       0.039200
     48 H18B        -7.1230     1.0120     1.0890 hc         1 JSZ       0.039200
     49 O4          -1.0570     0.5380    -0.1430 os         1 JSZ      -0.318100
@<TRIPOS>BOND
     1     1     3 2   
     2     1     5 1   
     3     1     8 1   
     4     2    20 1   
     5     2    21 1   
     6     2    24 1   
     7     4     5 1   
     8     4     6 1   
     9     4    25 1   
    10     4    26 1   
    11     6    27 1   
    12     6    28 1   
    13     6    29 1   
    14     7     8 1   
    15     7    13 1   
    16     8     9 2   
    17     9    11 1   
    18     9    12 1   
    19    10    19 1   
    20    10    30 1   
    21    11    31 1   
    22    11    32 1   
    23    11    33 1   
    24    12    13 ar  
    25    12    17 ar  
    26    13    14 ar  
    27    14    15 ar  
    28    14    34 1   
    29    15    16 ar  
    30    15    35 1   
    31    16    17 ar  
    32    16    36 1   
    33    17    49 1   
    34    18    19 1   
    35    18    37 1   
    36    18    38 1   
    37    18    49 1   
    38    19    20 1   
    39    19    39 1   
    40    20    40 1   
    41    20    41 1   
    42    21    22 1   
    43    21    23 1   
    44    21    42 1   
    45    22    43 1   
    46    22    44 1   
    47    22    45 1   
    48    23    46 1   
    49    23    47 1   
    50    23    48 1   
@<TRIPOS>SUBSTRUCTURE
     1 JSZ         1 TEMP              0 ****  ****    0 ROOT
