@<TRIPOS>MOLECULE
JT0
   42    43     1     0     0
SMALL
abcg2


@<TRIPOS>ATOM
      1 C02        123.6700  -105.3940   151.0430 c          1 JT0       0.609100
      2 C04        124.7730  -103.2380   150.6220 c3         1 JT0       0.103000
      3 C05        125.2970  -102.4880   151.8430 c3         1 JT0      -0.132400
      4 C06        126.2740  -101.3830   151.4540 c3         1 JT0       0.158600
      5 C08        124.7100   -99.6060   151.1390 c3         1 JT0       0.140900
      6 C09        122.4010  -103.2900   151.1470 cc         1 JT0       0.563300
      7 C11        120.9400  -101.6480   150.8230 cd         1 JT0       0.379500
      8 C12        120.4110  -100.5120   150.0570 ca         1 JT0      -0.168500
      9 C13        121.1570   -99.9470   149.0220 ca         1 JT0      -0.047000
     10 C14        120.6920   -98.8520   148.3010 ca         1 JT0      -0.175500
     11 C15        119.4490   -98.2990   148.6110 ca         1 JT0       0.148100
     12 C17        119.6380   -96.6280   146.9100 c3         1 JT0       0.148900
     13 C18        118.6880   -98.8580   149.6440 ca         1 JT0      -0.175500
     14 C19        119.1620   -99.9450   150.3510 ca         1 JT0      -0.047000
     15 C20        120.4600  -102.1240   152.0160 cc         1 JT0      -0.263000
     16 C22        122.4070  -106.2330   151.1750 c3         1 JT0       0.033600
     17 N03        123.5690  -104.0350   150.9370 n          1 JT0      -0.386300
     18 N10        122.0430  -102.3290   150.3530 nd         1 JT0      -0.658000
     19 O01        124.7510  -105.9660   151.0190 o          1 JT0      -0.564100
     20 O07        125.7220  -100.4180   150.5610 os         1 JT0      -0.463000
     21 O16        118.9000   -97.2340   147.9720 os         1 JT0      -0.348100
     22 S21        121.4320  -103.4180   152.5870 ss         1 JT0      -0.057400
     23 H1         124.4920  -102.5360   149.8420 h1         1 JT0       0.082700
     24 H2         125.8030  -103.1790   152.5220 hc         1 JT0       0.052200
     25 H3         127.1330  -101.8060   150.9290 h1         1 JT0       0.048700
     26 H4         126.6380  -100.8820   152.3590 h1         1 JT0       0.048700
     27 H5         124.4750   -98.8260   150.4160 h1         1 JT0       0.031700
     28 H6         123.7990  -100.1740   151.3510 h1         1 JT0       0.031700
     29 H7         125.0640   -99.1440   152.0690 h1         1 JT0       0.031700
     30 H8         122.1240  -100.3640   148.7780 ha         1 JT0       0.124000
     31 H9         121.3020   -98.4420   147.5110 ha         1 JT0       0.124500
     32 H10        119.0190   -95.8110   146.5470 h1         1 JT0       0.044033
     33 H11        120.5910   -96.2350   147.2690 h1         1 JT0       0.044033
     34 H12        119.8170   -97.3410   146.1010 h1         1 JT0       0.044033
     35 H13        117.7210   -98.4270   149.8730 ha         1 JT0       0.124500
     36 H14        118.5480  -100.3640   151.1380 ha         1 JT0       0.124000
     37 H15        119.6140  -101.7830   152.5890 h4         1 JT0       0.164000
     38 H16        122.7040  -107.2720   151.0990 h1         1 JT0       0.094200
     39 H17        121.8900  -106.0670   152.1160 h1         1 JT0       0.094200
     40 CL1        121.2170  -105.9270   149.8520 cl         1 JT0      -0.241000
     41 H19        125.5200  -103.9200   150.2280 h1         1 JT0       0.082700
     42 H20        124.4600  -102.0590   152.3980 hc         1 JT0       0.052200
@<TRIPOS>BOND
     1     1    16 1   
     2     1    17 1   
     3     1    19 2   
     4     2     3 1   
     5     2    17 1   
     6     2    23 1   
     7     2    41 1   
     8     3     4 1   
     9     3    24 1   
    10     3    42 1   
    11     4    20 1   
    12     4    25 1   
    13     4    26 1   
    14     5    20 1   
    15     5    27 1   
    16     5    28 1   
    17     5    29 1   
    18     6    17 1   
    19     6    18 2   
    20     6    22 1   
    21     7     8 1   
    22     7    15 2   
    23     7    18 1   
    24     8     9 ar  
    25     8    14 ar  
    26     9    10 ar  
    27     9    30 1   
    28    10    11 ar  
    29    10    31 1   
    30    11    13 ar  
    31    11    21 1   
    32    12    21 1   
    33    12    32 1   
    34    12    33 1   
    35    12    34 1   
    36    13    14 ar  
    37    13    35 1   
    38    14    36 1   
    39    15    22 1   
    40    15    37 1   
    41    16    38 1   
    42    16    39 1   
    43    16    40 1   
@<TRIPOS>SUBSTRUCTURE
     1 JT0         1 TEMP              0 ****  ****    0 ROOT
