@<TRIPOS>MOLECULE
JT0
   42    43     1     0     0
SMALL
No Charge or Current Charge


@<TRIPOS>ATOM
      1 C02        123.7030  -105.3860   151.4300 c          1 JT0       0.609100
      2 C04        124.7150  -103.2230   150.7310 c3         1 JT0       0.103000
      3 C05        125.1820  -102.3170   151.8920 c3         1 JT0      -0.132400
      4 C06        126.3980  -101.4290   151.5360 c3         1 JT0       0.158600
      5 C08        125.1100   -99.6210   150.4940 c3         1 JT0       0.140900
      6 C09        122.2660  -103.3880   151.1370 cc         1 JT0       0.563300
      7 C11        120.7840  -101.7680   150.7400 cd         1 JT0       0.379500
      8 C12        120.2990  -100.5480   150.0550 ca         1 JT0      -0.168500
      9 C13        121.0910   -99.9080   149.0720 ca         1 JT0      -0.047000
     10 C14        120.6370   -98.7470   148.4230 ca         1 JT0      -0.175500
     11 C15        119.3780   -98.2020   148.7440 ca         1 JT0       0.148100
     12 C17        119.6140   -96.3480   147.1320 c3         1 JT0       0.148900
     13 C18        118.5870   -98.8300   149.7160 ca         1 JT0      -0.175500
     14 C19        119.0380   -99.9900   150.3680 ca         1 JT0      -0.047000
     15 C20        120.0980  -102.4600   151.7120 cc         1 JT0      -0.263000
     16 C22        122.5540  -106.4110   151.2950 c3         1 JT0       0.033600
     17 N03        123.5080  -104.0260   151.0770 n          1 JT0      -0.386300
     18 N10        122.0280  -102.2950   150.4300 nd         1 JT0      -0.658000
     19 O01        124.8160  -105.7870   151.7500 o          1 JT0      -0.564100
     20 O07        126.1170  -100.6430   150.3560 os         1 JT0      -0.463000
     21 O16        118.8800   -97.0660   148.1410 os         1 JT0      -0.348100
     22 S21        121.0250  -103.8070   152.2990 ss         1 JT0      -0.057400
     23 H1         124.4910  -102.6030   149.8530 h1         1 JT0       0.082700
     24 H2         125.4550  -102.9500   152.7450 hc         1 JT0       0.052200
     25 H3         127.2650  -102.0770   151.3520 h1         1 JT0       0.048700
     26 H4         126.6450  -100.7810   152.3880 h1         1 JT0       0.048700
     27 H5         125.0530   -99.0190   149.5780 h1         1 JT0       0.031700
     28 H6         124.1180  -100.0570   150.6670 h1         1 JT0       0.031700
     29 H7         125.3470   -98.9480   151.3290 h1         1 JT0       0.031700
     30 H8         122.0680  -100.3060   148.8030 ha         1 JT0       0.124000
     31 H9         121.2770   -98.2870   147.6750 ha         1 JT0       0.124500
     32 H10        119.0380   -95.4800   146.7880 h1         1 JT0       0.044033
     33 H11        120.5710   -95.9850   147.5290 h1         1 JT0       0.044033
     34 H12        119.8130   -96.9900   146.2640 h1         1 JT0       0.044033
     35 H13        117.6150   -98.4130   149.9680 ha         1 JT0       0.124500
     36 H14        118.3960  -100.4470   151.1170 ha         1 JT0       0.124000
     37 H15        119.1240  -102.2620   152.1360 h4         1 JT0       0.164000
     38 H16        122.9940  -107.4140   151.3290 h1         1 JT0       0.094200
     39 H17        121.8590  -106.3190   152.1340 h1         1 JT0       0.094200
     40 Cl1        121.6250  -106.2940   149.7230 cl         1 JT0      -0.241000
     41 H19        125.5420  -103.8800   150.4290 h1         1 JT0       0.082700
     42 H20        124.3530  -101.6880   152.2340 hc         1 JT0       0.052200
@<TRIPOS>BOND
     1     1    16 1   
     2     1    17 1   
     3     1    19 2   
     4     2     3 1   
     5     2    17 1   
     6     2    23 1   
     7     2    41 1   
     8     3     4 1   
     9     3    24 1   
    10     3    42 1   
    11     4    20 1   
    12     4    25 1   
    13     4    26 1   
    14     5    20 1   
    15     5    27 1   
    16     5    28 1   
    17     5    29 1   
    18     6    17 1   
    19     6    18 2   
    20     6    22 1   
    21     7     8 1   
    22     7    15 2   
    23     7    18 1   
    24     8     9 ar  
    25     8    14 ar  
    26     9    10 ar  
    27     9    30 1   
    28    10    11 ar  
    29    10    31 1   
    30    11    13 ar  
    31    11    21 1   
    32    12    21 1   
    33    12    32 1   
    34    12    33 1   
    35    12    34 1   
    36    13    14 ar  
    37    13    35 1   
    38    14    36 1   
    39    15    22 1   
    40    15    37 1   
    41    16    38 1   
    42    16    39 1   
    43    16    40 1   
@<TRIPOS>SUBSTRUCTURE
     1 JT0         1 TEMP              0 ****  ****    0 ROOT
