@<TRIPOS>MOLECULE
JT1
   70    75     1     0     0
SMALL
No Charge or Current Charge


@<TRIPOS>ATOM
      1 N1          50.0690    33.5910    46.5910 nh         1 JT1      -0.733600
      2 N2          47.3880    33.7380    45.3130 n3         1 JT1      -0.779500
      3 S3          46.4380    35.1270    45.5850 sy         1 JT1       1.196600
      4 C4          44.9670    34.4260    46.3550 ca         1 JT1      -0.285500
      5 O5          46.0440    35.5950    44.2510 o          1 JT1      -0.532000
      6 O6          47.1550    35.9850    46.5330 o          1 JT1      -0.532000
      7 C7          44.6280    34.7410    47.6870 ca         1 JT1      -0.025000
      8 C8          43.4860    34.1700    48.2770 ca         1 JT1      -0.079000
      9 C9          42.6640    33.2810    47.5460 ca         1 JT1      -0.135300
     10 C10         43.0170    32.9660    46.2150 ca         1 JT1      -0.079000
     11 C11         44.1570    33.5360    45.6220 ca         1 JT1      -0.025000
     12 C12         47.6350    32.8050    46.4820 c6         1 JT1       0.126500
     13 C13         48.8140    33.3340    47.3790 c6         1 JT1       0.216800
     14 C14         49.8370    34.4440    45.3730 c6         1 JT1       0.196800
     15 C15         48.6350    33.9400    44.5160 c6         1 JT1       0.194800
     16 C16         47.8540    31.3160    46.0420 c          1 JT1       0.602100
     17 O17         46.9330    30.6110    45.6450 o          1 JT1      -0.594100
     18 N18         49.1510    30.8470    46.0850 ns         1 JT1      -0.488900
     19 C19         49.6060    29.5370    45.6280 c3         1 JT1       0.152300
     20 C20         50.7300    29.7030    44.6150 ca         1 JT1      -0.072300
     21 C21         50.4940    29.4730    43.2460 ca         1 JT1      -0.096000
     22 C22         51.5240    29.6450    42.3020 ca         1 JT1      -0.075000
     23 C23         52.8130    30.0590    42.7190 ca         1 JT1       0.050100
     24 C24         53.0380    30.2950    44.0940 ca         1 JT1       0.187000
     25 C25         52.0090    30.1180    45.0340 ca         1 JT1      -0.136000
     26 C26         51.3400    33.4210    47.1230 cc         1 JT1       0.678100
     27 S27         51.6010    32.8060    48.7780 ss         1 JT1       0.027800
     28 N28         52.4150    33.6470    46.3650 nd         1 JT1      -0.715700
     29 C29         53.5510    33.3320    47.1030 ca         1 JT1       0.324000
     30 C30         53.3070    32.8760    48.3840 ca         1 JT1      -0.332000
     31 C31         54.3750    32.5290    49.2250 ca         1 JT1       0.175900
     32 N32         55.6440    32.6350    48.7830 nb         1 JT1      -0.200000
     33 C33         55.8060    33.0820    47.5150 ca         1 JT1       0.187300
     34 N34         54.8200    33.4390    46.6580 nb         1 JT1      -0.151000
     35 O35         53.8700    30.2460    41.8360 os         1 JT1      -0.384100
     36 C36         53.7860    30.0360    40.4100 c3         1 JT1       0.502000
     37 C40         41.4290    32.6410    48.1920 c3         1 JT1       0.341300
     38 C44         57.2180    33.2220    47.0190 cx         1 JT1      -0.195000
     39 C45         58.2300    32.0990    47.1270 cx         1 JT1      -0.104900
     40 C46         57.6950    32.5010    45.7740 cx         1 JT1      -0.104900
     41 F37         54.9740    30.2970    39.8200 f          1 JT1      -0.104000
     42 F38         52.8720    30.8480    39.8290 f          1 JT1      -0.104000
     43 F39         53.4660    28.7580    40.1010 f          1 JT1      -0.104000
     44 F41         41.7250    31.4360    48.7290 f          1 JT1      -0.106333
     45 F42         40.4300    32.4410    47.3010 f          1 JT1      -0.106333
     46 F43         40.9120    33.4000    49.1870 f          1 JT1      -0.106333
     47 F47         54.2590    30.6920    44.5250 f          1 JT1      -0.156000
     48 H1          45.2440    35.4240    48.2720 ha         1 JT1       0.143000
     49 H2          43.2460    34.4220    49.3080 ha         1 JT1       0.141500
     50 H3          42.4110    32.2730    45.6340 ha         1 JT1       0.141500
     51 H4          44.4150    33.2750    44.5960 ha         1 JT1       0.143000
     52 H5          46.7440    32.7410    47.1230 h1         1 JT1       0.103700
     53 H6          48.5000    34.2620    47.8770 h1         1 JT1       0.077200
     54 H7          48.9800    32.6030    48.1840 h1         1 JT1       0.077200
     55 H8          50.7200    34.4670    44.7200 h1         1 JT1       0.078700
     56 H9          49.6490    35.4820    45.6810 h1         1 JT1       0.078700
     57 H10         48.9370    32.9880    44.0570 h1         1 JT1       0.082700
     58 H11         48.4690    34.6370    43.6820 h1         1 JT1       0.082700
     59 H12         49.8570    31.5430    46.3050 hn         1 JT1       0.332500
     60 H13         48.7740    28.9760    45.1800 h1         1 JT1       0.069200
     61 H14         49.9710    28.9660    46.4930 h1         1 JT1       0.069200
     62 H15         49.5070    29.1610    42.9080 ha         1 JT1       0.131000
     63 H16         51.2960    29.4520    41.2580 ha         1 JT1       0.141000
     64 H17         52.2110    30.3090    46.0860 ha         1 JT1       0.140000
     65 H18         54.2230    32.1710    50.2430 h4         1 JT1       0.031100
     66 H19         57.5980    34.2310    47.1720 hc         1 JT1       0.103700
     67 H20         59.2600    32.3620    47.3640 hc         1 JT1       0.079200
     68 H21         57.9000    31.1470    47.5360 hc         1 JT1       0.079200
     69 H22         57.0060    31.8170    45.2820 hc         1 JT1       0.079200
     70 H23         58.3620    33.0370    45.1010 hc         1 JT1       0.079200
@<TRIPOS>BOND
     1     1    13 1   
     2     1    14 1   
     3     1    26 1   
     4     2     3 1   
     5     2    12 1   
     6     2    15 1   
     7     3     4 1   
     8     3     5 2   
     9     3     6 2   
    10     4     7 ar  
    11     4    11 ar  
    12     7     8 ar  
    13     7    48 1   
    14     8     9 ar  
    15     8    49 1   
    16     9    10 ar  
    17     9    37 1   
    18    10    11 ar  
    19    10    50 1   
    20    11    51 1   
    21    12    13 1   
    22    12    16 1   
    23    12    52 1   
    24    13    53 1   
    25    13    54 1   
    26    14    15 1   
    27    14    55 1   
    28    14    56 1   
    29    15    57 1   
    30    15    58 1   
    31    16    17 2   
    32    16    18 1   
    33    18    19 1   
    34    18    59 1   
    35    19    20 1   
    36    19    60 1   
    37    19    61 1   
    38    20    21 ar  
    39    20    25 ar  
    40    21    22 ar  
    41    21    62 1   
    42    22    23 ar  
    43    22    63 1   
    44    23    24 ar  
    45    23    35 1   
    46    24    25 ar  
    47    24    47 1   
    48    25    64 1   
    49    26    27 1   
    50    26    28 2   
    51    27    30 1   
    52    28    29 1   
    53    29    30 ar  
    54    29    34 ar  
    55    30    31 ar  
    56    31    32 ar  
    57    31    65 1   
    58    32    33 ar  
    59    33    34 ar  
    60    33    38 1   
    61    35    36 1   
    62    36    41 1   
    63    36    42 1   
    64    36    43 1   
    65    37    44 1   
    66    37    45 1   
    67    37    46 1   
    68    38    39 1   
    69    38    40 1   
    70    38    66 1   
    71    39    40 1   
    72    39    67 1   
    73    39    68 1   
    74    40    69 1   
    75    40    70 1   
@<TRIPOS>SUBSTRUCTURE
     1 JT1         1 TEMP              0 ****  ****    0 ROOT
