@<TRIPOS>MOLECULE
JT1
   70    75     1     0     0
SMALL
abcg2


@<TRIPOS>ATOM
      1 N1          50.2210    33.1550    47.0160 nh         1 JT1      -0.733600
      2 N2          48.8610    34.0290    44.6950 n3         1 JT1      -0.779500
      3 S3          47.3890    34.6150    44.2530 sy         1 JT1       1.196600
      4 C4          46.3970    34.6850    45.7240 ca         1 JT1      -0.285500
      5 O5          46.8050    33.6280    43.3800 o          1 JT1      -0.532000
      6 O6          47.5990    35.9620    43.7890 o          1 JT1      -0.532000
      7 C7          46.4570    35.8140    46.5330 ca         1 JT1      -0.025000
      8 C8          45.7500    35.8300    47.7280 ca         1 JT1      -0.079000
      9 C9          44.9960    34.7220    48.0950 ca         1 JT1      -0.135300
     10 C10         44.9300    33.5990    47.2720 ca         1 JT1      -0.079000
     11 C11         45.6310    33.5780    46.0780 ca         1 JT1      -0.025000
     12 C12         49.0080    32.5950    44.9620 c6         1 JT1       0.126500
     13 C13         49.1810    32.3080    46.4530 c6         1 JT1       0.216800
     14 C14         49.9920    34.5880    46.8370 c6         1 JT1       0.196800
     15 C15         49.8480    34.9020    45.3560 c6         1 JT1       0.194800
     16 C16         50.1500    31.9690    44.1380 c          1 JT1       0.602100
     17 O17         50.6530    30.9060    44.4890 o          1 JT1      -0.594100
     18 N18         50.4920    32.6210    43.0200 ns         1 JT1      -0.488900
     19 C19         51.4740    32.0910    42.0880 c3         1 JT1       0.152300
     20 C20         50.9480    30.9500    41.2430 ca         1 JT1      -0.072300
     21 C21         51.6770    29.7700    41.1190 ca         1 JT1      -0.096000
     22 C22         51.2160    28.7270    40.3230 ca         1 JT1      -0.075000
     23 C23         50.0100    28.8610    39.6600 ca         1 JT1       0.050100
     24 C24         49.2830    30.0380    39.7820 ca         1 JT1       0.187000
     25 C25         49.7370    31.0820    40.5630 ca         1 JT1      -0.136000
     26 C26         51.1840    32.6990    47.8250 cc         1 JT1       0.678100
     27 S27         51.3230    30.9570    48.1710 ss         1 JT1       0.027800
     28 N28         52.0750    33.4670    48.4130 nd         1 JT1      -0.715700
     29 C29         52.9310    32.7230    49.1720 ca         1 JT1       0.324000
     30 C30         52.6950    31.3290    49.1760 ca         1 JT1      -0.332000
     31 C31         53.5300    30.5340    49.9280 ca         1 JT1       0.175900
     32 N32         54.5300    31.0750    50.6320 nb         1 JT1      -0.200000
     33 C33         54.6900    32.4060    50.5780 ca         1 JT1       0.187300
     34 N34         53.9310    33.2570    49.8730 nb         1 JT1      -0.151000
     35 O35         49.5400    27.8670    38.7920 os         1 JT1      -0.384100
     36 C36         48.8520    26.8370    39.3310 c3         1 JT1       0.502000
     37 C40         44.2510    34.6920    49.4030 c3         1 JT1       0.341300
     38 C44         55.7910    33.0060    51.3620 cx         1 JT1      -0.195000
     39 C45         56.1560    32.4350    52.7180 cx         1 JT1      -0.104900
     40 C46         57.0850    32.2480    51.5660 cx         1 JT1      -0.104900
     41 F37         48.4190    26.0710    38.3300 f          1 JT1      -0.104000
     42 F38         47.7880    27.2410    40.0490 f          1 JT1      -0.104000
     43 F39         49.6040    26.0750    40.1480 f          1 JT1      -0.104000
     44 F41         44.7700    33.7660    50.2450 f          1 JT1      -0.106333
     45 F42         42.9480    34.3670    49.2370 f          1 JT1      -0.106333
     46 F43         44.2800    35.8690    50.0520 f          1 JT1      -0.106333
     47 F47         48.1170    30.1570    39.1180 f          1 JT1      -0.156000
     48 H1          47.0470    36.6700    46.2370 ha         1 JT1       0.143000
     49 H2          45.7920    36.7020    48.3640 ha         1 JT1       0.141500
     50 H3          44.3320    32.7440    47.5600 ha         1 JT1       0.141500
     51 H4          45.5860    32.7140    45.4320 ha         1 JT1       0.143000
     52 H5          48.1050    32.0890    44.6200 h1         1 JT1       0.103700
     53 H6          48.2390    32.4960    46.9760 h1         1 JT1       0.077200
     54 H7          49.4360    31.2590    46.5690 h1         1 JT1       0.077200
     55 H8          50.8350    35.1340    47.2480 h1         1 JT1       0.078700
     56 H9          49.0890    34.8690    47.3870 h1         1 JT1       0.078700
     57 H10         50.8050    34.7510    44.8530 h1         1 JT1       0.082700
     58 H11         49.5530    35.9370    45.2140 h1         1 JT1       0.082700
     59 H12         49.9920    33.4640    42.7820 hn         1 JT1       0.332500
     60 H13         52.3460    31.7530    42.6470 h1         1 JT1       0.069200
     61 H14         51.7840    32.9170    41.4480 h1         1 JT1       0.069200
     62 H15         52.6140    29.6630    41.6480 ha         1 JT1       0.131000
     63 H16         51.7840    27.8140    40.2150 ha         1 JT1       0.141000
     64 H17         49.1420    31.9830    40.6370 ha         1 JT1       0.140000
     65 H18         53.4080    29.4580    49.9800 h4         1 JT1       0.031100
     66 H19         55.8640    34.0780    51.2510 hc         1 JT1       0.103700
     67 H20         56.4220    33.1440    53.4910 hc         1 JT1       0.079200
     68 H21         55.5850    31.5770    53.0470 hc         1 JT1       0.079200
     69 H22         57.1420    31.2650    51.1190 hc         1 JT1       0.079200
     70 H23         57.9990    32.8270    51.5380 hc         1 JT1       0.079200
@<TRIPOS>BOND
     1     1    13 1   
     2     1    14 1   
     3     1    26 1   
     4     2     3 1   
     5     2    12 1   
     6     2    15 1   
     7     3     4 1   
     8     3     5 2   
     9     3     6 2   
    10     4     7 ar  
    11     4    11 ar  
    12     7     8 ar  
    13     7    48 1   
    14     8     9 ar  
    15     8    49 1   
    16     9    10 ar  
    17     9    37 1   
    18    10    11 ar  
    19    10    50 1   
    20    11    51 1   
    21    12    13 1   
    22    12    16 1   
    23    12    52 1   
    24    13    53 1   
    25    13    54 1   
    26    14    15 1   
    27    14    55 1   
    28    14    56 1   
    29    15    57 1   
    30    15    58 1   
    31    16    17 2   
    32    16    18 1   
    33    18    19 1   
    34    18    59 1   
    35    19    20 1   
    36    19    60 1   
    37    19    61 1   
    38    20    21 ar  
    39    20    25 ar  
    40    21    22 ar  
    41    21    62 1   
    42    22    23 ar  
    43    22    63 1   
    44    23    24 ar  
    45    23    35 1   
    46    24    25 ar  
    47    24    47 1   
    48    25    64 1   
    49    26    27 1   
    50    26    28 2   
    51    27    30 1   
    52    28    29 1   
    53    29    30 ar  
    54    29    34 ar  
    55    30    31 ar  
    56    31    32 ar  
    57    31    65 1   
    58    32    33 ar  
    59    33    34 ar  
    60    33    38 1   
    61    35    36 1   
    62    36    41 1   
    63    36    42 1   
    64    36    43 1   
    65    37    44 1   
    66    37    45 1   
    67    37    46 1   
    68    38    39 1   
    69    38    40 1   
    70    38    66 1   
    71    39    40 1   
    72    39    67 1   
    73    39    68 1   
    74    40    69 1   
    75    40    70 1   
@<TRIPOS>SUBSTRUCTURE
     1 JT1         1 TEMP              0 ****  ****    0 ROOT
