@<TRIPOS>MOLECULE
JT3
   44    47     1     0     0
SMALL
abcg2


@<TRIPOS>ATOM
      1 N1           0.4180    15.7480   -54.1630 ns         1 JT3      -0.427400
      2 N3           1.8620    18.9900   -53.3950 na         1 JT3      -0.082000
      3 C4           1.4630    17.7770   -53.8700 cc         1 JT3      -0.316600
      4 C5           3.0020    18.6370   -55.2760 cd         1 JT3      -0.216000
      5 C6           2.7840    19.5110   -54.2280 cc         1 JT3      -0.099000
      6 C7           3.1850    19.6020   -57.8520 ca         1 JT3      -0.113000
      7 C8           3.8760    20.0800   -58.9720 ca         1 JT3       0.046200
      8 C10          1.7530    20.8710   -59.8810 ca         1 JT3      -0.192000
      9 C13          5.3420    19.9650   -59.1230 ce         1 JT3      -0.300200
     10 C15          3.2740    21.9860   -61.9340 ca         1 JT3       0.094100
     11 C17          2.6300    24.2070   -62.6060 ca         1 JT3       0.087000
     12 C20          2.8230    21.5050   -63.1540 ca         1 JT3       0.161500
     13 C1           0.5080    16.8620   -53.3350 c          1 JT3       0.598600
     14 C2           1.1300    15.5590   -55.3050 cc         1 JT3       0.450800
     15 N2           1.9910    16.3870   -55.7840 nd         1 JT3      -0.521100
     16 C3           2.1580    17.5200   -55.0440 cd         1 JT3       0.164400
     17 S1           4.1540    18.8380   -56.5690 ss         1 JT3       0.242000
     18 C9           3.1260    20.7160   -59.9640 ca         1 JT3       0.092100
     19 C11          1.1010    20.3780   -58.7600 ca         1 JT3      -0.127000
     20 C12          1.8040    19.7470   -57.7500 ca         1 JT3      -0.137000
     21 C14          6.0170    18.8160   -59.1990 c2         1 JT3      -0.134600
     22 P1           7.8450    18.6470   -59.4880 p5         1 JT3       1.128100
     23 O1           7.9050    18.0800   -60.9100 o          1 JT3      -0.921167
     24 O2           8.4130    20.0620   -59.3460 o          1 JT3      -0.921167
     25 O3           8.3010    17.6600   -58.4090 o          1 JT3      -0.921167
     26 O4          -0.1590    16.9790   -52.3200 o          1 JT3      -0.592000
     27 O5           3.8550    21.1510   -61.0470 os         1 JT3      -0.175200
     28 C16          3.1680    23.3450   -61.6700 ca         1 JT3       0.161500
     29 C18          2.1920    23.7140   -63.8220 ca         1 JT3       0.109000
     30 C19          2.2880    22.3620   -64.0980 ca         1 JT3       0.087000
     31 F1           2.9050    20.2080   -63.4190 f          1 JT3      -0.121000
     32 F2           1.8630    21.8930   -65.2640 f          1 JT3      -0.152000
     33 F3           1.6840    24.5400   -64.7260 f          1 JT3      -0.156000
     34 F4           2.5340    25.5040   -62.3450 f          1 JT3      -0.152000
     35 F5           3.5860    23.8160   -60.5030 f          1 JT3      -0.121000
     36 H1          -0.2330    15.0240   -53.8870 hn         1 JT3       0.314500
     37 H2           1.5280    19.4290   -52.5500 hn         1 JT3       0.351000
     38 H3           3.2330    20.4720   -54.0370 h4         1 JT3       0.162000
     39 H4           1.1840    21.3550   -60.6650 ha         1 JT3       0.092000
     40 H5           5.8880    20.9020   -59.2090 ha         1 JT3       0.208000
     41 H6           0.9260    14.6290   -55.8210 h5         1 JT3       0.042800
     42 H7           0.0280    20.4880   -58.6780 ha         1 JT3       0.083000
     43 H8           1.2740    19.3830   -56.8800 ha         1 JT3       0.099000
     44 H9           5.4360    17.8930   -59.1460 ha         1 JT3       0.125000
@<TRIPOS>BOND
     1     1    13 1   
     2     1    14 1   
     3     1    36 1   
     4     2     3 1   
     5     2     5 1   
     6     2    37 1   
     7     3    13 1   
     8     3    16 2   
     9     4     5 2   
    10     4    16 1   
    11     4    17 1   
    12     5    38 1   
    13     6     7 ar  
    14     6    17 1   
    15     6    20 ar  
    16     7     9 1   
    17     7    18 ar  
    18     8    18 ar  
    19     8    19 ar  
    20     8    39 1   
    21     9    21 2   
    22     9    40 1   
    23    10    12 ar  
    24    10    27 1   
    25    10    28 ar  
    26    11    28 ar  
    27    11    29 ar  
    28    11    34 1   
    29    12    30 ar  
    30    12    31 1   
    31    13    26 2   
    32    14    15 2   
    33    14    41 1   
    34    15    16 1   
    35    18    27 1   
    36    19    20 ar  
    37    19    42 1   
    38    20    43 1   
    39    21    22 1   
    40    21    44 1   
    41    22    23 1   
    42    22    24 1   
    43    22    25 1   
    44    28    35 1   
    45    29    30 ar  
    46    29    33 1   
    47    30    32 1   
@<TRIPOS>SUBSTRUCTURE
     1 JT3         1 TEMP              0 ****  ****    0 ROOT
