@<TRIPOS>MOLECULE
JT3
   44    47     1     0     0
SMALL
No Charge or Current Charge


@<TRIPOS>ATOM
      1 N1           0.1530    16.9070   -53.6670 ns         1 JT3      -0.427400
      2 N3           3.1230    18.9900   -54.3690 na         1 JT3      -0.082000
      3 C4           2.0470    18.0850   -54.3100 cc         1 JT3      -0.316600
      4 C5           3.2660    17.7300   -56.1590 cd         1 JT3      -0.216000
      5 C6           3.8900    18.7680   -55.5230 cc         1 JT3      -0.099000
      6 C7           2.9750    18.3420   -58.6090 ca         1 JT3      -0.113000
      7 C8           3.5920    19.5460   -59.0340 ca         1 JT3       0.046200
      8 C10          1.4430    20.2890   -59.9540 ca         1 JT3      -0.192000
      9 C13          5.0390    19.8210   -58.7830 ce         1 JT3      -0.300200
     10 C15          2.9950    22.3960   -61.2220 ca         1 JT3       0.094100
     11 C17          2.1970    24.4740   -62.2270 ca         1 JT3       0.087000
     12 C20          2.9760    21.7800   -62.4940 ca         1 JT3       0.161500
     13 C1           0.9880    17.9140   -53.3260 c          1 JT3       0.598600
     14 C2           0.2880    16.1400   -54.8010 cc         1 JT3       0.450800
     15 N2           1.2540    16.2850   -55.7110 nd         1 JT3      -0.521100
     16 C3           2.1500    17.3090   -55.4280 cd         1 JT3       0.164400
     17 S1           3.8810    17.0930   -57.6890 ss         1 JT3       0.242000
     18 C9           2.8120    20.5180   -59.7040 ca         1 JT3       0.092100
     19 C11          0.8470    19.0870   -59.5460 ca         1 JT3      -0.127000
     20 C12          1.6100    18.1200   -58.8770 ca         1 JT3      -0.137000
     21 C14          6.0620    18.9980   -59.1310 c2         1 JT3      -0.134600
     22 P1           7.8560    19.4680   -58.8040 p5         1 JT3       1.128100
     23 O1           8.5190    19.4890   -60.1380 o          1 JT3      -0.921167
     24 O2           7.9450    20.7680   -58.0780 o          1 JT3      -0.921167
     25 O3           8.4670    18.3180   -58.0790 o          1 JT3      -0.921167
     26 O4           0.8510    18.5810   -52.3130 o          1 JT3      -0.592000
     27 O5           3.4030    21.7000   -60.1030 os         1 JT3      -0.175200
     28 C16          2.6140    23.7460   -61.0970 ca         1 JT3       0.161500
     29 C18          2.1680    23.8550   -63.4910 ca         1 JT3       0.109000
     30 C19          2.5600    22.5090   -63.6250 ca         1 JT3       0.087000
     31 F1           3.3690    20.4920   -62.6390 f          1 JT3      -0.121000
     32 F2           2.5400    21.9170   -64.8430 f          1 JT3      -0.152000
     33 F3           1.7680    24.5550   -64.5790 f          1 JT3      -0.156000
     34 F4           1.8240    25.7700   -62.0990 f          1 JT3      -0.152000
     35 F5           2.6390    24.3450   -59.8820 f          1 JT3      -0.121000
     36 H1          -0.6120    16.7230   -53.0340 hn         1 JT3       0.314500
     37 H2           3.3200    19.7050   -53.6740 hn         1 JT3       0.351000
     38 H3           4.7700    19.3480   -55.7790 h4         1 JT3       0.162000
     39 H4           0.8370    21.0370   -60.4570 ha         1 JT3       0.092000
     40 H5           5.2500    20.7910   -58.3290 ha         1 JT3       0.208000
     41 H6          -0.4850    15.3850   -54.8860 h5         1 JT3       0.042800
     42 H7          -0.2080    18.9090   -59.7390 ha         1 JT3       0.083000
     43 H8           1.1380    17.1970   -58.5490 ha         1 JT3       0.099000
     44 H9           5.9230    18.0410   -59.6230 ha         1 JT3       0.125000
@<TRIPOS>BOND
     1     1    13 1   
     2     1    14 1   
     3     1    36 1   
     4     2     3 1   
     5     2     5 1   
     6     2    37 1   
     7     3    13 1   
     8     3    16 2   
     9     4     5 2   
    10     4    16 1   
    11     4    17 1   
    12     5    38 1   
    13     6     7 ar  
    14     6    17 1   
    15     6    20 ar  
    16     7     9 1   
    17     7    18 ar  
    18     8    18 ar  
    19     8    19 ar  
    20     8    39 1   
    21     9    21 2   
    22     9    40 1   
    23    10    12 ar  
    24    10    27 1   
    25    10    28 ar  
    26    11    28 ar  
    27    11    29 ar  
    28    11    34 1   
    29    12    30 ar  
    30    12    31 1   
    31    13    26 2   
    32    14    15 2   
    33    14    41 1   
    34    15    16 1   
    35    18    27 1   
    36    19    20 ar  
    37    19    42 1   
    38    20    43 1   
    39    21    22 1   
    40    21    44 1   
    41    22    23 1   
    42    22    24 1   
    43    22    25 1   
    44    28    35 1   
    45    29    30 ar  
    46    29    33 1   
    47    30    32 1   
@<TRIPOS>SUBSTRUCTURE
     1 JT3         1 TEMP              0 ****  ****    0 ROOT
