@<TRIPOS>MOLECULE
JT4
   53    55     1     0     0
SMALL
abcg2


@<TRIPOS>ATOM
      1 C1          15.2740    -0.2300   -24.1950 c3         1 JT4      -0.081100
      2 C2          19.4830     2.9190   -23.6870 ca         1 JT4      -0.034000
      3 C3          19.7570     2.2640   -24.8730 ca         1 JT4      -0.132000
      4 C4          19.2650     0.9790   -25.1140 ca         1 JT4       0.402000
      5 C29         18.7380     2.3060   -22.6890 ca         1 JT4      -0.148000
      6 C28         18.2670     1.0230   -22.8950 ca         1 JT4      -0.011000
      7 C10         18.2950     4.7910   -27.2140 ca         1 JT4      -0.119000
      8 C11         18.1240     5.8830   -26.3620 ca         1 JT4       0.122100
      9 C12         18.6960     7.1030   -26.6900 ca         1 JT4      -0.177000
     10 C13         19.4420     7.2240   -27.8610 ca         1 JT4      -0.141000
     11 C14         19.6370     6.1420   -28.7000 ca         1 JT4       0.070100
     12 C15         20.8960     7.3970   -30.2690 c3         1 JT4       0.151900
     13 C16         16.3610    -0.4630   -26.4620 c3         1 JT4      -0.081100
     14 C20         17.1290     6.7330   -24.3860 c3         1 JT4       0.147900
     15 C27         18.5110     0.3660   -24.0980 ca         1 JT4      -0.294500
     16 C5          19.5830     0.8260   -27.5530 ca         1 JT4       0.427900
     17 C6          19.8280     0.4770   -29.7400 ca         1 JT4       0.205900
     18 C7          19.4200     2.5380   -28.9870 ca         1 JT4       0.429900
     19 C8          16.2130    -1.0470   -25.0670 c3         1 JT4      -0.241700
     20 C9          19.0540     4.9040   -28.3650 ca         1 JT4       0.305000
     21 N2          19.8150    -0.0570   -28.5310 nb         1 JT4      -0.290000
     22 N3          19.6460     1.7460   -30.0470 nb         1 JT4      -0.301000
     23 N4          19.3720     2.1190   -27.7300 nb         1 JT4      -0.330000
     24 N5          19.2440     3.8450   -29.2620 nu         1 JT4      -0.914900
     25 S1          17.8160    -1.2700   -24.2510 sy         1 JT4       1.011500
     26 H1          15.1450    -0.6600   -23.2030 hc         1 JT4       0.052700
     27 H2          15.6150     0.8000   -24.0940 hc         1 JT4       0.052700
     28 H3          14.2960    -0.2060   -24.6750 hc         1 JT4       0.052700
     29 H4          19.8780     3.9150   -23.5350 ha         1 JT4       0.118000
     30 H5          20.3630     2.7510   -25.6190 ha         1 JT4       0.144000
     31 H6          18.5350     2.8140   -21.7570 ha         1 JT4       0.120000
     32 H7          17.6990     0.5310   -22.1180 ha         1 JT4       0.138000
     33 H8          17.8310     3.8500   -26.9590 ha         1 JT4       0.154000
     34 H9          18.5820     7.9750   -26.0610 ha         1 JT4       0.120000
     35 H10         19.8770     8.1880   -28.0910 ha         1 JT4       0.119000
     36 H11         21.4050     7.2040   -31.2100 h1         1 JT4       0.041700
     37 H12         20.1200     8.1490   -30.4360 h1         1 JT4       0.041700
     38 H13         21.6210     7.7920   -29.5520 h1         1 JT4       0.041700
     39 H14         15.3800    -0.4660   -26.9360 hc         1 JT4       0.052700
     40 H15         16.7010     0.5730   -26.4320 hc         1 JT4       0.052700
     41 H16         17.0320    -1.0420   -27.0940 hc         1 JT4       0.052700
     42 H17         16.5120     6.3450   -23.5790 h1         1 JT4       0.039700
     43 H18         18.0490     7.1400   -23.9570 h1         1 JT4       0.039700
     44 H19         16.5880     7.5420   -24.8840 h1         1 JT4       0.039700
     45 H20         20.0100    -0.2020   -30.5670 h5         1 JT4       0.053100
     46 H21         15.8570    -2.0810   -25.1340 h1         1 JT4       0.102700
     47 H22         19.5670    -0.7030   -26.2600 hn         1 JT4       0.553000
     48 H23         19.3960     4.0910   -30.2290 hn         1 JT4       0.531000
     49 N1          19.5500     0.3080   -26.3010 nu         1 JT4      -0.947900
     50 O2          17.5700    -1.7760   -22.9020 o          1 JT4      -0.525000
     51 O3          18.6780    -2.0770   -25.1250 o          1 JT4      -0.525000
     52 O4          17.3830     5.6510   -25.2560 os         1 JT4      -0.339100
     53 O1          20.3530     6.1650   -29.8450 os         1 JT4      -0.351100
@<TRIPOS>BOND
     1     1    19 1   
     2     1    26 1   
     3     1    27 1   
     4     1    28 1   
     5     2     3 ar  
     6     2     5 ar  
     7     2    29 1   
     8     3     4 ar  
     9     3    30 1   
    10     4    15 ar  
    11     4    49 1   
    12     5     6 ar  
    13     5    31 1   
    14     6    15 ar  
    15     6    32 1   
    16     7     8 ar  
    17     7    20 ar  
    18     7    33 1   
    19     8     9 ar  
    20     8    52 1   
    21     9    10 ar  
    22     9    34 1   
    23    10    11 ar  
    24    10    35 1   
    25    11    20 ar  
    26    11    53 1   
    27    12    36 1   
    28    12    37 1   
    29    12    38 1   
    30    12    53 1   
    31    13    19 1   
    32    13    39 1   
    33    13    40 1   
    34    13    41 1   
    35    14    42 1   
    36    14    43 1   
    37    14    44 1   
    38    14    52 1   
    39    15    25 1   
    40    16    21 ar  
    41    16    23 ar  
    42    16    49 1   
    43    17    21 ar  
    44    17    22 ar  
    45    17    45 1   
    46    18    22 ar  
    47    18    23 ar  
    48    18    24 1   
    49    19    25 1   
    50    19    46 1   
    51    20    24 1   
    52    24    48 1   
    53    25    50 2   
    54    25    51 2   
    55    47    49 1   
@<TRIPOS>SUBSTRUCTURE
     1 JT4         1 TEMP              0 ****  ****    0 ROOT
