@<TRIPOS>MOLECULE
JT4
   53    55     1     0     0
SMALL
No Charge or Current Charge


@<TRIPOS>ATOM
      1 C1          15.1610    -0.3300   -24.2010 c3         1 JT4      -0.081100
      2 C2          19.5420     2.5850   -23.2890 ca         1 JT4      -0.034000
      3 C3          19.8260     2.0120   -24.5370 ca         1 JT4      -0.132000
      4 C4          19.2820     0.7670   -24.9090 ca         1 JT4       0.402000
      5 C29         18.7130     1.9050   -22.3870 ca         1 JT4      -0.148000
      6 C28         18.1770     0.6550   -22.7330 ca         1 JT4      -0.011000
      7 C10         18.5150     4.9450   -27.1290 ca         1 JT4      -0.119000
      8 C11         18.2410     6.1090   -26.3980 ca         1 JT4       0.122100
      9 C12         18.6300     7.3640   -26.9110 ca         1 JT4      -0.177000
     10 C13         19.2810     7.4460   -28.1530 ca         1 JT4      -0.141000
     11 C14         19.5590     6.2720   -28.8900 ca         1 JT4       0.070100
     12 C15         20.6140     7.5560   -30.7320 c3         1 JT4       0.151900
     13 C16         16.2770    -0.3500   -26.5100 c3         1 JT4      -0.081100
     14 C20         17.2660     7.0980   -24.3560 c3         1 JT4       0.147900
     15 C27         18.4590     0.0760   -23.9920 ca         1 JT4      -0.294500
     16 C5          19.7300     0.7640   -27.4210 ca         1 JT4       0.427900
     17 C6          20.0760     0.4260   -29.6310 ca         1 JT4       0.205900
     18 C7          19.6300     2.5060   -28.8530 ca         1 JT4       0.429900
     19 C8          16.1070    -1.0990   -25.1610 c3         1 JT4      -0.241700
     20 C9          19.1870     5.0060   -28.3660 ca         1 JT4       0.305000
     21 N2          19.9910    -0.1160   -28.3980 nb         1 JT4      -0.290000
     22 N3          19.9080     1.7350   -29.9150 nb         1 JT4      -0.301000
     23 N4          19.5340     2.0780   -27.5870 nb         1 JT4      -0.330000
     24 N5          19.4810     3.8550   -29.1230 nu         1 JT4      -0.914900
     25 S1          17.7100    -1.5220   -24.3740 sy         1 JT4       1.011500
     26 H1          15.0060    -0.8840   -23.2670 hc         1 JT4       0.052700
     27 H2          15.5660     0.6590   -23.9530 hc         1 JT4       0.052700
     28 H3          14.1790    -0.1830   -24.6660 hc         1 JT4       0.052700
     29 H4          19.9670     3.5490   -23.0210 ha         1 JT4       0.118000
     30 H5          20.4890     2.5390   -25.2150 ha         1 JT4       0.144000
     31 H6          18.4890     2.3430   -21.4180 ha         1 JT4       0.120000
     32 H7          17.5360     0.1440   -22.0160 ha         1 JT4       0.138000
     33 H8          18.1820     3.9980   -26.7240 ha         1 JT4       0.154000
     34 H9          18.4290     8.2830   -26.3670 ha         1 JT4       0.120000
     35 H10         19.5600     8.4280   -28.5270 ha         1 JT4       0.119000
     36 H11         21.0930     7.3600   -31.7000 h1         1 JT4       0.041700
     37 H12         19.7550     8.2150   -30.9060 h1         1 JT4       0.041700
     38 H13         21.3380     8.0790   -30.0950 h1         1 JT4       0.041700
     39 H14         15.3040    -0.2120   -26.9970 hc         1 JT4       0.052700
     40 H15         16.7200     0.6420   -26.3610 hc         1 JT4       0.052700
     41 H16         16.9150    -0.9150   -27.2010 hc         1 JT4       0.052700
     42 H17         16.7530     6.7630   -23.4460 h1         1 JT4       0.039700
     43 H18         18.1760     7.6330   -24.0560 h1         1 JT4       0.039700
     44 H19         16.6030     7.7970   -24.8820 h1         1 JT4       0.039700
     45 H20         20.2950    -0.2440   -30.4600 h5         1 JT4       0.053100
     46 H21         15.6490    -2.0720   -25.3750 h1         1 JT4       0.102700
     47 H22         19.4860    -0.7890   -26.1890 hn         1 JT4       0.553000
     48 H23         19.7870     4.0920   -30.0670 hn         1 JT4       0.531000
     49 N1          19.5890     0.2280   -26.1580 nu         1 JT4      -0.947900
     50 O2          17.3920    -2.1980   -23.1090 o          1 JT4      -0.525000
     51 O3          18.5220    -2.2000   -25.3950 o          1 JT4      -0.525000
     52 O4          17.5870     5.9710   -25.1900 os         1 JT4      -0.339100
     53 O1          20.1960     6.3190   -30.1240 os         1 JT4      -0.351100
@<TRIPOS>BOND
     1     1    19 1   
     2     1    26 1   
     3     1    27 1   
     4     1    28 1   
     5     2     3 ar  
     6     2     5 ar  
     7     2    29 1   
     8     3     4 ar  
     9     3    30 1   
    10     4    15 ar  
    11     4    49 1   
    12     5     6 ar  
    13     5    31 1   
    14     6    15 ar  
    15     6    32 1   
    16     7     8 ar  
    17     7    20 ar  
    18     7    33 1   
    19     8     9 ar  
    20     8    52 1   
    21     9    10 ar  
    22     9    34 1   
    23    10    11 ar  
    24    10    35 1   
    25    11    20 ar  
    26    11    53 1   
    27    12    36 1   
    28    12    37 1   
    29    12    38 1   
    30    12    53 1   
    31    13    19 1   
    32    13    39 1   
    33    13    40 1   
    34    13    41 1   
    35    14    42 1   
    36    14    43 1   
    37    14    44 1   
    38    14    52 1   
    39    15    25 1   
    40    16    21 ar  
    41    16    23 ar  
    42    16    49 1   
    43    17    21 ar  
    44    17    22 ar  
    45    17    45 1   
    46    18    22 ar  
    47    18    23 ar  
    48    18    24 1   
    49    19    25 1   
    50    19    46 1   
    51    20    24 1   
    52    24    48 1   
    53    25    50 2   
    54    25    51 2   
    55    47    49 1   
@<TRIPOS>SUBSTRUCTURE
     1 JT4         1 TEMP              0 ****  ****    0 ROOT
