@<TRIPOS>MOLECULE
JT5
   42    43     1     0     0
SMALL
abcg2


@<TRIPOS>ATOM
      1 C3           4.2020    -1.2970     7.8350 c          1 JT5       0.577100
      2 C4           5.0670    -0.8530     9.0170 c3         1 JT5       0.158800
      3 C8           7.2650    -2.0090     8.6470 c3         1 JT5       0.215800
      4 N2           3.2790    -2.2220     8.1690 ns         1 JT5      -0.386400
      5 O1           2.4900    -2.8030     7.1880 oh         1 JT5      -0.430100
      6 O5           4.3090    -0.8030     6.7220 o          1 JT5      -0.571100
      7 N6           6.4800    -0.7760     8.6960 n3         1 JT5      -0.788500
      8 S7           7.2290     0.6460     8.3780 sy         1 JT5       1.225600
      9 C9           7.0290    -2.8310     7.3870 c3         1 JT5       0.134600
     10 O10          7.9660    -3.9070     7.4270 oh         1 JT5      -0.669000
     11 O11          8.4270     0.7230     9.1840 o          1 JT5      -0.546500
     12 C12          7.7560     0.5400     6.6930 ca         1 JT5      -0.306500
     13 O13          6.2330     1.6830     8.5100 o          1 JT5      -0.546500
     14 C14          9.0530     0.1280     6.4040 ca         1 JT5      -0.002500
     15 C15          9.4350    -0.0390     5.0810 ca         1 JT5      -0.127500
     16 C16          8.5390     0.2040     4.0350 cp         1 JT5       0.025000
     17 C17          7.2450     0.6400     4.3540 ca         1 JT5      -0.127500
     18 C18          6.8500     0.8050     5.6700 ca         1 JT5      -0.002500
     19 C19          8.9430    -0.0010     2.6270 cp         1 JT5      -0.053000
     20 C20          8.0330    -0.5050     1.6900 ca         1 JT5      -0.092500
     21 C21          8.4120    -0.7110     0.3700 ca         1 JT5      -0.112500
     22 C22          9.7080    -0.4140    -0.0410 ca         1 JT5      -0.101000
     23 C23         10.6220     0.0910     0.8800 ca         1 JT5      -0.112500
     24 C24         10.2440     0.2920     2.2020 ca         1 JT5      -0.092500
     25 H25          3.3320    -2.7640     9.0200 hn         1 JT5       0.339500
     26 H26          4.9490    -1.5230     9.8710 h1         1 JT5       0.082700
     27 H27          4.7120     0.1310     9.3160 h1         1 JT5       0.082700
     28 H28          8.3220    -1.7520     8.7100 h1         1 JT5       0.071200
     29 H29          7.0240    -2.6040     9.5310 h1         1 JT5       0.071200
     30 H30          6.0060    -3.2180     7.3620 h1         1 JT5       0.036200
     31 H31          7.1830    -2.2100     6.5000 h1         1 JT5       0.036200
     32 H32          7.7800    -4.5000     6.6900 ho         1 JT5       0.451000
     33 H33          9.7500    -0.0750     7.2040 ha         1 JT5       0.141500
     34 H34         10.4360    -0.3860     4.8630 ha         1 JT5       0.121500
     35 H35          6.5430     0.8630     3.5620 ha         1 JT5       0.121500
     36 H36          5.8440     1.1200     5.9050 ha         1 JT5       0.141500
     37 H37          7.0270    -0.7580     2.0010 ha         1 JT5       0.116500
     38 H38          7.6970    -1.1120    -0.3370 ha         1 JT5       0.115000
     39 H39         10.0040    -0.5740    -1.0700 ha         1 JT5       0.115000
     40 H40         11.6300     0.3320     0.5680 ha         1 JT5       0.115000
     41 H41         10.9590     0.7000     2.9050 ha         1 JT5       0.116500
     42 H42          1.6680    -2.2880     7.1710 ho         1 JT5       0.453000
@<TRIPOS>BOND
     1     1     2 1   
     2     1     4 1   
     3     1     6 2   
     4     2     7 1   
     5     2    26 1   
     6     2    27 1   
     7     3     7 1   
     8     3     9 1   
     9     3    28 1   
    10     3    29 1   
    11     4     5 1   
    12     4    25 1   
    13     5    42 1   
    14     7     8 1   
    15     8    11 2   
    16     8    12 1   
    17     8    13 2   
    18     9    10 1   
    19     9    30 1   
    20     9    31 1   
    21    10    32 1   
    22    12    14 ar  
    23    12    18 ar  
    24    14    15 ar  
    25    14    33 1   
    26    15    16 ar  
    27    15    34 1   
    28    16    17 ar  
    29    16    19 1   
    30    17    18 ar  
    31    17    35 1   
    32    18    36 1   
    33    19    20 ar  
    34    19    24 ar  
    35    20    21 ar  
    36    20    37 1   
    37    21    22 ar  
    38    21    38 1   
    39    22    23 ar  
    40    22    39 1   
    41    23    24 ar  
    42    23    40 1   
    43    24    41 1   
@<TRIPOS>SUBSTRUCTURE
     1 JT5         1 TEMP              0 ****  ****    0 ROOT
