@<TRIPOS>MOLECULE
JT5
   42    43     1     0     0
SMALL
No Charge or Current Charge


@<TRIPOS>ATOM
      1 C3           4.0470    -1.4550     8.2560 c          1 JT5       0.577100
      2 C4           5.2370    -1.4140     9.2730 c3         1 JT5       0.158800
      3 C8           7.4990    -2.1310     8.3000 c3         1 JT5       0.215800
      4 N2           2.7810    -1.3940     8.8410 ns         1 JT5      -0.386400
      5 O1           1.5870    -1.6810     8.0710 oh         1 JT5      -0.430100
      6 O5           4.1870    -1.5350     7.0390 o          1 JT5      -0.571100
      7 N6           6.6150    -1.0420     8.8010 n3         1 JT5      -0.788500
      8 S7           6.8820     0.5670     8.2800 sy         1 JT5       1.225600
      9 C9           7.0270    -2.9000     7.0350 c3         1 JT5       0.134600
     10 O10          7.9980    -3.8910     6.6530 oh         1 JT5      -0.669000
     11 O11          7.9010     1.1170     9.1800 o          1 JT5      -0.546500
     12 C12          7.5430     0.3880     6.6120 ca         1 JT5      -0.306500
     13 O13          5.5560     1.1830     8.1600 o          1 JT5      -0.546500
     14 C14          8.9350     0.3280     6.4030 ca         1 JT5      -0.002500
     15 C15          9.4450     0.1940     5.1000 ca         1 JT5      -0.127500
     16 C16          8.5860     0.1220     3.9760 cp         1 JT5       0.025000
     17 C17          7.1900     0.1970     4.2080 ca         1 JT5      -0.127500
     18 C18          6.6710     0.3330     5.5060 ca         1 JT5      -0.002500
     19 C19          9.1340    -0.0240     2.5890 cp         1 JT5      -0.053000
     20 C20          8.4500    -0.7870     1.6070 ca         1 JT5      -0.092500
     21 C21          8.9650    -0.9250     0.3060 ca         1 JT5      -0.112500
     22 C22         10.1740    -0.3030    -0.0420 ca         1 JT5      -0.101000
     23 C23         10.8680     0.4580     0.9120 ca         1 JT5      -0.112500
     24 C24         10.3540     0.5950     2.2130 ca         1 JT5      -0.092500
     25 H25          2.6900    -1.4690     9.8550 hn         1 JT5       0.339500
     26 H26          5.2590    -2.4020     9.7510 h1         1 JT5       0.082700
     27 H27          4.9330    -0.7120    10.0610 h1         1 JT5       0.082700
     28 H28          8.5100    -1.7450     8.1160 h1         1 JT5       0.071200
     29 H29          7.6120    -2.8780     9.0970 h1         1 JT5       0.071200
     30 H30          6.0670    -3.3860     7.2510 h1         1 JT5       0.036200
     31 H31          6.8670    -2.1960     6.2100 h1         1 JT5       0.036200
     32 H32          7.6600    -4.3280     5.8390 ho         1 JT5       0.451000
     33 H33          9.6250     0.3790     7.2440 ha         1 JT5       0.141500
     34 H34         10.5210     0.1300     4.9650 ha         1 JT5       0.121500
     35 H35          6.4980     0.1640     3.3700 ha         1 JT5       0.121500
     36 H36          5.5920     0.3890     5.6460 ha         1 JT5       0.141500
     37 H37          7.5190    -1.2890     1.8590 ha         1 JT5       0.116500
     38 H38          8.4260    -1.5180    -0.4300 ha         1 JT5       0.115000
     39 H39         10.5710    -0.4090    -1.0490 ha         1 JT5       0.115000
     40 H40         11.8030     0.9440     0.6430 ha         1 JT5       0.115000
     41 H41         10.9010     1.2000     2.9320 ha         1 JT5       0.116500
     42 H42          0.9970    -0.9110     8.2570 ho         1 JT5       0.453000
@<TRIPOS>BOND
     1     1     2 1   
     2     1     4 1   
     3     1     6 2   
     4     2     7 1   
     5     2    26 1   
     6     2    27 1   
     7     3     7 1   
     8     3     9 1   
     9     3    28 1   
    10     3    29 1   
    11     4     5 1   
    12     4    25 1   
    13     5    42 1   
    14     7     8 1   
    15     8    11 2   
    16     8    12 1   
    17     8    13 2   
    18     9    10 1   
    19     9    30 1   
    20     9    31 1   
    21    10    32 1   
    22    12    14 ar  
    23    12    18 ar  
    24    14    15 ar  
    25    14    33 1   
    26    15    16 ar  
    27    15    34 1   
    28    16    17 ar  
    29    16    19 1   
    30    17    18 ar  
    31    17    35 1   
    32    18    36 1   
    33    19    20 ar  
    34    19    24 ar  
    35    20    21 ar  
    36    20    37 1   
    37    21    22 ar  
    38    21    38 1   
    39    22    23 ar  
    40    22    39 1   
    41    23    24 ar  
    42    23    40 1   
    43    24    41 1   
@<TRIPOS>SUBSTRUCTURE
     1 JT5         1 TEMP              0 ****  ****    0 ROOT
