@<TRIPOS>MOLECULE
JT6
   35    36     1     0     0
SMALL
No Charge or Current Charge


@<TRIPOS>ATOM
      1 C17         -5.8520    -0.3410     0.3030 ca         1 JT6      -0.022000
      2 C16         -5.2940     0.8990     0.6640 ca         1 JT6      -0.069500
      3 C15         -3.9120     1.1190     0.5260 ca         1 JT6      -0.111000
      4 C14         -3.0530     0.1080     0.0280 cp         1 JT6       0.004000
      5 C13          0.3050     1.8350    -0.6260 ca         1 JT6      -0.173500
      6 C12         -1.0770     1.6150    -0.4900 ca         1 JT6      -0.056500
      7 C10         -0.6460    -0.6960     0.1140 ca         1 JT6      -0.056500
      8 C9           0.7360    -0.4770    -0.0210 ca         1 JT6      -0.173500
      9 C18         -5.0170    -1.3580    -0.1950 ca         1 JT6      -0.069500
     10 C8           1.2170     0.7950    -0.3930 ca         1 JT6       0.154100
     11 C19         -3.6350    -1.1350    -0.3290 ca         1 JT6      -0.111000
     12 C1           6.0670    -0.2500    -0.3620 c          1 JT6       0.604100
     13 C6           3.5750     0.0760    -0.3270 c3         1 JT6       0.172600
     14 C3           4.9340     0.7470    -0.5850 c3         1 JT6      -0.168400
     15 N2           6.8330    -0.0330     0.7780 ns         1 JT6      -0.389400
     16 O4           6.3070    -1.1520    -1.1540 o          1 JT6      -0.568100
     17 O5           7.7760    -1.0290     1.2440 oh         1 JT6      -0.419100
     18 O7           2.5600     1.0710    -0.5420 os         1 JT6      -0.353100
     19 C11         -1.5810     0.3440    -0.1170 cp         1 JT6      -0.085000
     20 C20         -7.2650    -0.5680     0.4420 cg         1 JT6       0.325000
     21 N21         -8.4140    -0.7510     0.5450 n1         1 JT6      -0.454000
     22 H31         -3.5030     2.0810     0.8240 ha         1 JT6       0.120500
     23 H32         -5.9280     1.6940     1.0530 ha         1 JT6       0.126000
     24 H22          6.5170     0.6460     1.4700 hn         1 JT6       0.338500
     25 H23          5.0380     1.6020     0.0930 hc         1 JT6       0.075200
     26 H24          4.9600     1.0850    -1.6270 hc         1 JT6       0.075200
     27 H25          3.4430    -0.7690    -1.0160 h1         1 JT6       0.052700
     28 H26          3.5390    -0.3000     0.7040 h1         1 JT6       0.052700
     29 H27          1.4140    -1.3040     0.1700 ha         1 JT6       0.125500
     30 H28         -0.9940    -1.6820     0.4150 ha         1 JT6       0.117000
     31 H29         -1.7610     2.4360    -0.6890 ha         1 JT6       0.117000
     32 H30          0.6710     2.8160    -0.9160 ha         1 JT6       0.125500
     33 H33         -5.4350    -2.3210    -0.4800 ha         1 JT6       0.126000
     34 H34         -3.0120    -1.9310    -0.7290 ha         1 JT6       0.120500
     35 H35          8.6060    -0.5150     1.3890 ho         1 JT6       0.446000
@<TRIPOS>BOND
     1     1     2 ar  
     2     1     9 ar  
     3     1    20 1   
     4     2     3 ar  
     5     2    23 1   
     6     3     4 ar  
     7     3    22 1   
     8     4    11 ar  
     9     4    19 1   
    10     5     6 ar  
    11     5    10 ar  
    12     5    32 1   
    13     6    19 ar  
    14     6    31 1   
    15     7     8 ar  
    16     7    19 ar  
    17     7    30 1   
    18     8    10 ar  
    19     8    29 1   
    20     9    11 ar  
    21     9    33 1   
    22    10    18 1   
    23    11    34 1   
    24    12    14 1   
    25    12    15 1   
    26    12    16 2   
    27    13    14 1   
    28    13    18 1   
    29    13    27 1   
    30    13    28 1   
    31    14    25 1   
    32    14    26 1   
    33    15    17 1   
    34    15    24 1   
    35    17    35 1   
    36    20    21 3   
@<TRIPOS>SUBSTRUCTURE
     1 JT6         1 TEMP              0 ****  ****    0 ROOT
