@<TRIPOS>MOLECULE
JT6
   35    36     1     0     0
SMALL
bcc


@<TRIPOS>ATOM
      1 C17         -5.7890    -0.3150     0.1860 ca         1 JT6      -0.022000
      2 C16         -5.2440     0.9160     0.5510 ca         1 JT6      -0.087500
      3 C15         -3.8800     1.1140     0.4620 ca         1 JT6      -0.129000
      4 C14         -3.0300     0.1020     0.0060 cp         1 JT6       0.004000
      5 C13          0.2970     1.7970    -0.5180 ca         1 JT6      -0.191500
      6 C12         -1.0620     1.5810    -0.4270 ca         1 JT6      -0.074500
      7 C10         -0.6700    -0.7030     0.1500 ca         1 JT6      -0.074500
      8 C9           0.7000    -0.5020     0.0670 ca         1 JT6      -0.191500
      9 C18         -4.9570    -1.3390    -0.2680 ca         1 JT6      -0.087500
     10 C8           1.1950     0.7560    -0.2680 ca         1 JT6       0.154100
     11 C19         -3.5940    -1.1250    -0.3560 ca         1 JT6      -0.129000
     12 C1           5.9250    -0.3430    -0.1370 c          1 JT6       0.671100
     13 C6           3.4610     0.0440    -0.1360 c3         1 JT6       0.149400
     14 C3           4.8260     0.6800    -0.3190 c3         1 JT6      -0.168400
     15 N2           6.9620     0.1130     0.5860 ns         1 JT6      -0.456400
     16 O4           5.8850    -1.4540    -0.6350 o          1 JT6      -0.568100
     17 O5           7.9830    -0.7220     0.9170 oh         1 JT6      -0.380100
     18 O7           2.5000     1.0590    -0.3730 os         1 JT6      -0.329900
     19 C11         -1.5780     0.3250    -0.0900 cp         1 JT6      -0.085000
     20 C20         -7.1950    -0.5270     0.2770 cg         1 JT6       0.235800
     21 N21         -8.3330    -0.6990     0.3500 n1         1 JT6      -0.364800
     22 H31         -3.4720     2.0670     0.7730 ha         1 JT6       0.138500
     23 H32         -5.8850     1.7100     0.9110 ha         1 JT6       0.144000
     24 H22          6.9180     0.9690     1.1210 hn         1 JT6       0.338500
     25 H23          4.9410     1.5180     0.3710 hc         1 JT6       0.075200
     26 H24          4.9110     1.0830    -1.3320 hc         1 JT6       0.075200
     27 H25          3.3250    -0.7840    -0.8370 h1         1 JT6       0.052700
     28 H26          3.3570    -0.3510     0.8800 h1         1 JT6       0.052700
     29 H27          1.3600    -1.3340     0.2730 ha         1 JT6       0.143500
     30 H28         -1.0260    -1.6860     0.4340 ha         1 JT6       0.135000
     31 H29         -1.7330     2.4020    -0.6440 ha         1 JT6       0.135000
     32 H30          0.6760     2.7740    -0.7910 ha         1 JT6       0.143500
     33 H33         -5.3760    -2.2910    -0.5610 ha         1 JT6       0.144000
     34 H34         -2.9660    -1.9210    -0.7340 ha         1 JT6       0.138500
     35 H35          8.6860    -0.5550     0.2750 ho         1 JT6       0.407000
@<TRIPOS>BOND
     1     1     2 ar  
     2     1     9 ar  
     3     1    20 1   
     4     2     3 ar  
     5     2    23 1   
     6     3     4 ar  
     7     3    22 1   
     8     4    11 ar  
     9     4    19 1   
    10     5     6 ar  
    11     5    10 ar  
    12     5    32 1   
    13     6    19 ar  
    14     6    31 1   
    15     7     8 ar  
    16     7    19 ar  
    17     7    30 1   
    18     8    10 ar  
    19     8    29 1   
    20     9    11 ar  
    21     9    33 1   
    22    10    18 1   
    23    11    34 1   
    24    12    14 1   
    25    12    15 1   
    26    12    16 2   
    27    13    14 1   
    28    13    18 1   
    29    13    27 1   
    30    13    28 1   
    31    14    25 1   
    32    14    26 1   
    33    15    17 1   
    34    15    24 1   
    35    17    35 1   
    36    20    21 3   
@<TRIPOS>SUBSTRUCTURE
     1 JT6         1 TEMP              0 ****  ****    0 ROOT
