@<TRIPOS>MOLECULE
JT8
   89    91     1     0     0
SMALL
No Charge or Current Charge


@<TRIPOS>ATOM
      1 C4         -10.0940   -14.4190     4.3230 ca         1 JT8      -0.100500
      2 C14         -9.2020   -14.7890    13.8250 ca         1 JT8      -0.145000
      3 C5          -9.2480   -15.4280     3.8230 ca         1 JT8      -0.076300
      4 C6          -8.7170   -16.5140     4.7540 c3         1 JT8      -0.047100
      5 C11         -7.2230   -14.8730    10.6900 c3         1 JT8       0.040700
      6 C7          -7.4900   -16.0650     5.5910 c3         1 JT8       0.119700
      7 C8          -7.0240   -17.1680     6.6010 c3         1 JT8       0.168300
      8 C9          -5.9010   -16.7400     7.5740 c3         1 JT8      -0.195400
      9 C10         -6.3170   -15.5520     8.4370 c          1 JT8       0.604100
     10 C12         -6.0560   -14.4620    11.6330 c          1 JT8       0.592100
     11 C13         -8.4420   -15.4240    11.4720 c3         1 JT8      -0.134700
     12 N1          -6.7640   -15.8700     9.6990 ns         1 JT8      -0.497900
     13 N2          -6.1540   -13.1810    12.1320 ns         1 JT8      -0.489900
     14 C3         -10.5810   -13.4140     3.4680 ca         1 JT8      -0.107000
     15 O2          -5.1190   -15.2010    11.9090 o          1 JT8      -0.618100
     16 C15         -9.0200   -14.4330    12.4750 ca         1 JT8       0.339300
     17 C33         -9.7290   -13.8440    14.7200 ca         1 JT8      -0.071000
     18 C32        -10.0570   -12.5740    14.2210 ca         1 JT8      -0.162000
     19 C31         -9.8470   -12.2980    12.8600 ca         1 JT8       0.337900
     20 N15         -9.3350   -13.2060    11.9970 nb         1 JT8      -0.678000
     21 O1          -6.2340   -14.3970     8.0520 o          1 JT8      -0.576100
     22 O8          -6.5560   -18.3210     5.8840 oh         1 JT8      -0.664000
     23 C29         -5.1340   -12.5000    12.9290 c3         1 JT8       0.100000
     24 C28         -4.8840   -11.0610    12.4180 c3         1 JT8      -0.089400
     25 C27         -4.3190   -10.9400    10.9740 c3         1 JT8      -0.077400
     26 C26         -2.7710   -10.9100    10.8570 c3         1 JT8      -0.070400
     27 C25         -2.0140   -12.1790    11.3190 c3         1 JT8      -0.069400
     28 C24         -2.3140   -13.4700    10.5170 c3         1 JT8      -0.078400
     29 C23         -1.7810   -13.4550     9.0650 c3         1 JT8      -0.071400
     30 C22         -1.9460   -14.8150     8.3460 c3         1 JT8      -0.074400
     31 C21         -1.2150   -14.9020     6.9830 c3         1 JT8      -0.069400
     32 C20         -1.7790   -14.0050     5.8530 c3         1 JT8      -0.070400
     33 C19         -3.1490   -14.4680     5.3090 c3         1 JT8      -0.084400
     34 C18         -3.6490   -13.6110     4.1220 c3         1 JT8      -0.064400
     35 C17         -4.9030   -14.1870     3.4200 c3         1 JT8      -0.155400
     36 C16         -6.0930   -14.3420     4.3730 c          1 JT8       0.605100
     37 O3          -6.7450   -13.3860     4.7670 o          1 JT8      -0.592100
     38 N           -6.3870   -15.6430     4.7160 ns         1 JT8      -0.502900
     39 C           -8.8940   -15.4210     2.4590 ca         1 JT8      -0.100500
     40 C2         -10.2230   -13.4110     2.1090 ca         1 JT8      -0.107000
     41 C1          -9.3790   -14.4150     1.6050 ca         1 JT8      -0.107000
     42 H1         -10.3740   -14.4110     5.3740 ha         1 JT8       0.106500
     43 H3          -9.5140   -16.8290     5.4380 hc         1 JT8       0.053700
     44 H4          -8.4520   -17.4050     4.1710 hc         1 JT8       0.053700
     45 H5          -7.5370   -13.9680    10.1530 h1         1 JT8       0.089700
     46 H6          -7.8150   -15.1960     6.1780 h1         1 JT8       0.094700
     47 H7          -7.8980   -17.4470     7.2070 h1         1 JT8       0.031700
     48 H8          -5.6820   -17.5960     8.2240 hc         1 JT8       0.075200
     49 H9          -5.0090   -16.4690     6.9980 hc         1 JT8       0.075200
     50 H10         -9.2250   -15.7050    10.7580 hc         1 JT8       0.065700
     51 H11         -8.1460   -16.3470    11.9840 hc         1 JT8       0.065700
     52 H12         -6.7570   -16.8500     9.9590 hn         1 JT8       0.314500
     53 H13         -6.9930   -12.6670    11.8840 hn         1 JT8       0.319500
     54 H14        -11.2330   -12.6360     3.8600 ha         1 JT8       0.109500
     55 H15         -9.8800   -14.0900    15.7700 ha         1 JT8       0.122000
     56 H16        -10.4680   -11.8090    14.8740 ha         1 JT8       0.126000
     57 H17        -10.0920   -11.3200    12.4470 h4         1 JT8       0.021100
     58 H18         -6.4580   -19.0500     6.5340 ho         1 JT8       0.446000
     59 H19         -5.4840   -12.4570    13.9680 h1         1 JT8       0.052200
     60 H20         -4.2020   -13.0760    12.9150 h1         1 JT8       0.052200
     61 H21         -4.2130   -10.5450    13.1160 hc         1 JT8       0.039200
     62 H22         -5.8370   -10.5200    12.4630 hc         1 JT8       0.039200
     63 H23         -4.6900    -9.9970    10.5530 hc         1 JT8       0.050700
     64 H24         -4.7310   -11.7270    10.3320 hc         1 JT8       0.050700
     65 H25         -2.3980   -10.0580    11.4390 hc         1 JT8       0.034200
     66 H26         -2.5050   -10.6960     9.8150 hc         1 JT8       0.034200
     67 H27         -2.2180   -12.3550    12.3800 hc         1 JT8       0.032200
     68 H28         -0.9370   -11.9780    11.2610 hc         1 JT8       0.032200
     69 H29         -3.3920   -13.6610    10.5040 hc         1 JT8       0.046700
     70 H30         -1.8570   -14.3130    11.0500 hc         1 JT8       0.046700
     71 H31         -0.7180   -13.1860     9.0810 hc         1 JT8       0.035700
     72 H32         -2.3030   -12.6770     8.4950 hc         1 JT8       0.035700
     73 H33         -3.0120   -15.0390     8.2200 hc         1 JT8       0.039200
     74 H34         -1.5410   -15.6030     8.9930 hc         1 JT8       0.039200
     75 H35         -1.2260   -15.9450     6.6430 hc         1 JT8       0.032200
     76 H36         -0.1590   -14.6470     7.1380 hc         1 JT8       0.032200
     77 H37         -1.0580   -14.0100     5.0260 hc         1 JT8       0.036200
     78 H38         -1.8470   -12.9660     6.1960 hc         1 JT8       0.036200
     79 H39         -3.8910   -14.4320     6.1140 hc         1 JT8       0.044700
     80 H40         -3.0700   -15.5150     4.9890 hc         1 JT8       0.044700
     81 H41         -2.8480   -13.5210     3.3780 hc         1 JT8       0.047700
     82 H42         -3.8650   -12.5950     4.4770 hc         1 JT8       0.047700
     83 H43         -5.1880   -13.4990     2.6160 hc         1 JT8       0.054700
     84 H44         -4.6380   -15.1600     2.9890 hc         1 JT8       0.054700
     85 H45         -5.7850   -16.3650     4.3410 hn         1 JT8       0.316500
     86 H46         -8.2380   -16.1930     2.0610 ha         1 JT8       0.106500
     87 H47        -10.5980   -12.6330     1.4490 ha         1 JT8       0.110000
     88 H48         -9.1000   -14.4140     0.5540 ha         1 JT8       0.109500
     89 H2          -8.9360   -15.7840    14.1730 ha         1 JT8       0.131000
@<TRIPOS>BOND
     1     1     3 ar  
     2     1    14 ar  
     3     1    42 1   
     4     2    16 ar  
     5     2    17 ar  
     6     2    89 1   
     7     3     4 1   
     8     3    39 ar  
     9     4     6 1   
    10     4    43 1   
    11     4    44 1   
    12     5    10 1   
    13     5    11 1   
    14     5    12 1   
    15     5    45 1   
    16     6     7 1   
    17     6    38 1   
    18     6    46 1   
    19     7     8 1   
    20     7    22 1   
    21     7    47 1   
    22     8     9 1   
    23     8    48 1   
    24     8    49 1   
    25     9    12 1   
    26     9    21 2   
    27    10    13 1   
    28    10    15 2   
    29    11    16 1   
    30    11    50 1   
    31    11    51 1   
    32    12    52 1   
    33    13    23 1   
    34    13    53 1   
    35    14    40 ar  
    36    14    54 1   
    37    16    20 ar  
    38    17    18 ar  
    39    17    55 1   
    40    18    19 ar  
    41    18    56 1   
    42    19    20 ar  
    43    19    57 1   
    44    22    58 1   
    45    23    24 1   
    46    23    59 1   
    47    23    60 1   
    48    24    25 1   
    49    24    61 1   
    50    24    62 1   
    51    25    26 1   
    52    25    63 1   
    53    25    64 1   
    54    26    27 1   
    55    26    65 1   
    56    26    66 1   
    57    27    28 1   
    58    27    67 1   
    59    27    68 1   
    60    28    29 1   
    61    28    69 1   
    62    28    70 1   
    63    29    30 1   
    64    29    71 1   
    65    29    72 1   
    66    30    31 1   
    67    30    73 1   
    68    30    74 1   
    69    31    32 1   
    70    31    75 1   
    71    31    76 1   
    72    32    33 1   
    73    32    77 1   
    74    32    78 1   
    75    33    34 1   
    76    33    79 1   
    77    33    80 1   
    78    34    35 1   
    79    34    81 1   
    80    34    82 1   
    81    35    36 1   
    82    35    83 1   
    83    35    84 1   
    84    36    37 2   
    85    36    38 1   
    86    38    85 1   
    87    39    41 ar  
    88    39    86 1   
    89    40    41 ar  
    90    40    87 1   
    91    41    88 1   
@<TRIPOS>SUBSTRUCTURE
     1 JT8         1 TEMP              0 ****  ****    0 ROOT
