@<TRIPOS>MOLECULE
JT8
   89    91     1     0     0
SMALL
abcg2


@<TRIPOS>ATOM
      1 C4         -10.1080   -14.4690     4.4810 ca         1 JT8      -0.100500
      2 C14         -8.7900   -14.6660    13.7600 ca         1 JT8      -0.145000
      3 C5          -9.1880   -15.4100     4.0240 ca         1 JT8      -0.076300
      4 C6          -8.6950   -16.5020     4.9260 c3         1 JT8      -0.047100
      5 C11         -7.5660   -14.8780    10.4680 c3         1 JT8       0.040700
      6 C7          -7.4760   -16.0580     5.7550 c3         1 JT8       0.119700
      7 C8          -7.0240   -17.1650     6.7100 c3         1 JT8       0.168300
      8 C9          -5.8840   -16.7320     7.6430 c3         1 JT8      -0.195400
      9 C10         -6.2430   -15.5850     8.5590 c          1 JT8       0.604100
     10 C12         -6.3680   -14.4630    11.3290 c          1 JT8       0.592100
     11 C13         -8.6550   -15.4670    11.3740 c3         1 JT8      -0.134700
     12 N1          -7.1720   -15.8610     9.4930 ns         1 JT8      -0.497900
     13 N2          -6.3160   -13.1590    11.6220 ns         1 JT8      -0.489900
     14 C3         -10.5300   -13.4280     3.6660 ca         1 JT8      -0.107000
     15 O2          -5.5720   -15.2940    11.7390 o          1 JT8      -0.618100
     16 C15         -9.0960   -14.4790    12.4160 ca         1 JT8       0.339300
     17 C33         -9.1820   -13.7040    14.6780 ca         1 JT8      -0.071000
     18 C32         -9.8670   -12.5880    14.2240 ca         1 JT8      -0.162000
     19 C31        -10.1300   -12.4930    12.8650 ca         1 JT8       0.337900
     20 N15         -9.7580   -13.4090    11.9820 nb         1 JT8      -0.678000
     21 O1          -5.7410   -14.4730     8.4640 o          1 JT8      -0.576100
     22 O8          -6.6150   -18.2560     5.9160 oh         1 JT8      -0.664000
     23 C29         -5.3360   -12.5530    12.4970 c3         1 JT8       0.100000
     24 C28         -4.9960   -11.1410    12.0390 c3         1 JT8      -0.089400
     25 C27         -4.3100   -11.0370    10.6710 c3         1 JT8      -0.077400
     26 C26         -2.7830   -11.0080    10.7210 c3         1 JT8      -0.070400
     27 C25         -2.1030   -12.2580    11.2740 c3         1 JT8      -0.069400
     28 C24         -2.3260   -13.5340    10.4640 c3         1 JT8      -0.078400
     29 C23         -1.7550   -13.4730     9.0510 c3         1 JT8      -0.071400
     30 C22         -1.8000   -14.8190     8.3350 c3         1 JT8      -0.074400
     31 C21         -1.1030   -14.8200     6.9750 c3         1 JT8      -0.069400
     32 C20         -1.7370   -13.9340     5.9040 c3         1 JT8      -0.070400
     33 C19         -3.1140   -14.4050     5.4510 c3         1 JT8      -0.084400
     34 C18         -3.6930   -13.5490     4.3300 c3         1 JT8      -0.064400
     35 C17         -4.9220   -14.1730     3.6700 c3         1 JT8      -0.155400
     36 C16         -6.0550   -14.3610     4.6540 c          1 JT8       0.605100
     37 O3          -6.5980   -13.4060     5.1920 o          1 JT8      -0.592100
     38 N           -6.3880   -15.6430     4.9030 ns         1 JT8      -0.502900
     39 C           -8.7050   -15.2870     2.7230 ca         1 JT8      -0.100500
     40 C2         -10.0340   -13.3110     2.3730 ca         1 JT8      -0.107000
     41 C1          -9.1200   -14.2450     1.9040 ca         1 JT8      -0.107000
     42 H1         -10.4990   -14.5530     5.4890 ha         1 JT8       0.106500
     43 H3          -9.4860   -16.8020     5.6180 hc         1 JT8       0.053700
     44 H4          -8.4330   -17.3830     4.3380 hc         1 JT8       0.053700
     45 H5          -7.9790   -14.0050     9.9550 h1         1 JT8       0.089700
     46 H6          -7.7730   -15.1930     6.3510 h1         1 JT8       0.094700
     47 H7          -7.8980   -17.4370     7.3180 h1         1 JT8       0.031700
     48 H8          -5.6000   -17.5940     8.2550 hc         1 JT8       0.075200
     49 H9          -5.0120   -16.4470     7.0540 hc         1 JT8       0.075200
     50 H10         -9.5070   -15.7500    10.7520 hc         1 JT8       0.065700
     51 H11         -8.2800   -16.3750    11.8510 hc         1 JT8       0.065700
     52 H12         -7.4800   -16.8130     9.6170 hn         1 JT8       0.314500
     53 H13         -7.0370   -12.5570    11.2530 hn         1 JT8       0.319500
     54 H14        -11.2480   -12.7090     4.0380 ha         1 JT8       0.109500
     55 H15         -8.9540   -13.8240    15.7290 ha         1 JT8       0.122000
     56 H16        -10.1910   -11.8090    14.9010 ha         1 JT8       0.126000
     57 H17        -10.6680   -11.6360    12.4730 h4         1 JT8       0.021100
     58 H18         -6.4120   -19.0030     6.4880 ho         1 JT8       0.446000
     59 H19         -5.7180   -12.5220    13.5230 h1         1 JT8       0.052200
     60 H20         -4.4520   -13.1870    12.5070 h1         1 JT8       0.052200
     61 H21         -4.3680   -10.6790    12.8060 hc         1 JT8       0.039200
     62 H22         -5.9220   -10.5570    12.0320 hc         1 JT8       0.039200
     63 H23         -4.6380   -10.1130    10.1880 hc         1 JT8       0.050700
     64 H24         -4.6560   -11.8420    10.0140 hc         1 JT8       0.050700
     65 H25         -2.4750   -10.1490    11.3270 hc         1 JT8       0.034200
     66 H26         -2.4050   -10.8070     9.7140 hc         1 JT8       0.034200
     67 H27         -2.4220   -12.4220    12.3080 hc         1 JT8       0.032200
     68 H28         -1.0270   -12.0680    11.3300 hc         1 JT8       0.032200
     69 H29         -3.3930   -13.7740    10.4110 hc         1 JT8       0.046700
     70 H30         -1.8610   -14.3680    10.9990 hc         1 JT8       0.046700
     71 H31         -0.7160   -13.1280     9.0980 hc         1 JT8       0.035700
     72 H32         -2.2960   -12.7230     8.4670 hc         1 JT8       0.035700
     73 H33         -2.8400   -15.1450     8.2330 hc         1 JT8       0.039200
     74 H34         -1.3160   -15.5690     8.9680 hc         1 JT8       0.039200
     75 H35         -1.0610   -15.8460     6.5970 hc         1 JT8       0.032200
     76 H36         -0.0620   -14.5110     7.1200 hc         1 JT8       0.032200
     77 H37         -1.0730   -13.9150     5.0340 hc         1 JT8       0.036200
     78 H38         -1.7980   -12.8990     6.2530 hc         1 JT8       0.036200
     79 H39         -3.8050   -14.4120     6.2980 hc         1 JT8       0.044700
     80 H40         -3.0390   -15.4450     5.1100 hc         1 JT8       0.044700
     81 H41         -2.9350   -13.3990     3.5560 hc         1 JT8       0.047700
     82 H42         -3.9410   -12.5550     4.7110 hc         1 JT8       0.047700
     83 H43         -5.2830   -13.5210     2.8710 hc         1 JT8       0.054700
     84 H44         -4.6400   -15.1190     3.2030 hc         1 JT8       0.054700
     85 H45         -5.9130   -16.3650     4.3850 hn         1 JT8       0.316500
     86 H46         -7.9970   -16.0150     2.3450 ha         1 JT8       0.106500
     87 H47        -10.3610   -12.5000     1.7360 ha         1 JT8       0.110000
     88 H48         -8.7320   -14.1650     0.8960 ha         1 JT8       0.109500
     89 H2          -8.2490   -15.5480    14.0770 ha         1 JT8       0.131000
@<TRIPOS>BOND
     1     1     3 ar  
     2     1    14 ar  
     3     1    42 1   
     4     2    16 ar  
     5     2    17 ar  
     6     2    89 1   
     7     3     4 1   
     8     3    39 ar  
     9     4     6 1   
    10     4    43 1   
    11     4    44 1   
    12     5    10 1   
    13     5    11 1   
    14     5    12 1   
    15     5    45 1   
    16     6     7 1   
    17     6    38 1   
    18     6    46 1   
    19     7     8 1   
    20     7    22 1   
    21     7    47 1   
    22     8     9 1   
    23     8    48 1   
    24     8    49 1   
    25     9    12 1   
    26     9    21 2   
    27    10    13 1   
    28    10    15 2   
    29    11    16 1   
    30    11    50 1   
    31    11    51 1   
    32    12    52 1   
    33    13    23 1   
    34    13    53 1   
    35    14    40 ar  
    36    14    54 1   
    37    16    20 ar  
    38    17    18 ar  
    39    17    55 1   
    40    18    19 ar  
    41    18    56 1   
    42    19    20 ar  
    43    19    57 1   
    44    22    58 1   
    45    23    24 1   
    46    23    59 1   
    47    23    60 1   
    48    24    25 1   
    49    24    61 1   
    50    24    62 1   
    51    25    26 1   
    52    25    63 1   
    53    25    64 1   
    54    26    27 1   
    55    26    65 1   
    56    26    66 1   
    57    27    28 1   
    58    27    67 1   
    59    27    68 1   
    60    28    29 1   
    61    28    69 1   
    62    28    70 1   
    63    29    30 1   
    64    29    71 1   
    65    29    72 1   
    66    30    31 1   
    67    30    73 1   
    68    30    74 1   
    69    31    32 1   
    70    31    75 1   
    71    31    76 1   
    72    32    33 1   
    73    32    77 1   
    74    32    78 1   
    75    33    34 1   
    76    33    79 1   
    77    33    80 1   
    78    34    35 1   
    79    34    81 1   
    80    34    82 1   
    81    35    36 1   
    82    35    83 1   
    83    35    84 1   
    84    36    37 2   
    85    36    38 1   
    86    38    85 1   
    87    39    41 ar  
    88    39    86 1   
    89    40    41 ar  
    90    40    87 1   
    91    41    88 1   
@<TRIPOS>SUBSTRUCTURE
     1 JT8         1 TEMP              0 ****  ****    0 ROOT
