@<TRIPOS>MOLECULE
JT9
   38    41     1     0     0
SMALL
bcc


@<TRIPOS>ATOM
      1 C10         32.2890   -48.4170    -8.8000 ca         1 JT9       0.056400
      2 C11         31.5900   -49.4870    -8.2260 ca         1 JT9       0.063600
      3 C13         33.3850   -47.8750    -8.1220 ca         1 JT9      -0.048000
      4 C15         31.9820   -50.0070    -6.9920 ca         1 JT9      -0.179000
      5 C16         30.9110   -48.3820   -10.6460 cc         1 JT9       0.374300
      6 C17         33.7740   -48.3880    -6.9030 ca         1 JT9      -0.163000
      7 C18         30.1020   -49.5140   -10.1300 c          1 JT9       0.575200
      8 C19         33.0670   -49.4550    -6.3420 ca         1 JT9      -0.075000
      9 C20         30.5130   -47.7760   -11.9550 c3         1 JT9      -0.103700
     10 C22         29.2900   -46.8630   -11.8130 c3         1 JT9      -0.079700
     11 C1          27.6680   -43.7440   -16.5170 cc         1 JT9      -0.085000
     12 C2          29.0710   -43.6430   -16.6510 cc         1 JT9      -0.035600
     13 C3          29.9340   -44.2360   -15.7680 cd         1 JT9       0.035400
     14 C4          27.1300   -44.4470   -15.4820 cd         1 JT9       0.033400
     15 C5          27.9920   -45.0610   -14.5580 cd         1 JT9      -0.005300
     16 N6          29.3380   -44.9230   -14.7520 na         1 JT9       0.191000
     17 N7          29.9940   -45.5720   -13.7860 nd         1 JT9      -0.599100
     18 C8          29.0180   -46.0750   -13.0480 cc         1 JT9       0.540300
     19 N9          27.7780   -45.7920   -13.4790 nc         1 JT9      -0.372300
     20 N12         31.9160   -47.8960   -10.0150 nd         1 JT9      -0.516100
     21 N14         30.5220   -49.9900    -8.9260 ns         1 JT9      -0.437100
     22 O21         29.1470   -49.9830   -10.7250 o          1 JT9      -0.603500
     23 CL25        25.4400   -44.6110   -15.2600 cl         1 JT9      -0.038400
     24 H27         33.9160   -47.0490    -8.5780 ha         1 JT9       0.153000
     25 H29         31.4350   -50.8340    -6.5550 ha         1 JT9       0.140000
     26 H30         34.6220   -47.9670    -6.3810 ha         1 JT9       0.141000
     27 H31         33.3710   -49.8590    -5.3850 ha         1 JT9       0.137000
     28 H32         31.3600   -47.1980   -12.3200 hc         1 JT9       0.077200
     29 H33         30.3030   -48.5560   -12.6900 hc         1 JT9       0.077200
     30 H34         29.4510   -46.1640   -10.9870 hc         1 JT9       0.075700
     31 H35         28.3990   -47.4390   -11.5670 hc         1 JT9       0.075700
     32 H37         31.8100   -43.7560   -14.8880 hc         1 JT9       0.071367
     33 H38         31.8130   -45.2290   -15.8460 hc         1 JT9       0.071367
     34 H36         31.7880   -43.6570   -16.6500 hc         1 JT9       0.071367
     35 H26         27.0280   -43.2590   -17.2410 ha         1 JT9       0.170000
     36 H28         30.0020   -50.7660    -8.5320 hn         1 JT9       0.331500
     37 CL24        29.6800   -42.7330   -17.9830 cl         1 JT9      -0.071400
     38 C23         31.4180   -44.2140   -15.7960 c3         1 JT9      -0.049800
@<TRIPOS>BOND
     1     1     2 ar  
     2     1     3 ar  
     3     1    20 1   
     4     2     4 ar  
     5     2    21 1   
     6     3     6 ar  
     7     3    24 1   
     8     4     8 ar  
     9     4    25 1   
    10     5     7 1   
    11     5     9 1   
    12     5    20 2   
    13     6     8 ar  
    14     6    26 1   
    15     7    21 1   
    16     7    22 2   
    17     8    27 1   
    18     9    10 1   
    19     9    28 1   
    20     9    29 1   
    21    10    18 1   
    22    10    30 1   
    23    10    31 1   
    24    11    12 1   
    25    11    14 2   
    26    11    35 1   
    27    12    13 2   
    28    12    37 1   
    29    13    16 1   
    30    13    38 1   
    31    14    15 1   
    32    14    23 1   
    33    15    16 1   
    34    15    19 2   
    35    16    17 1   
    36    17    18 2   
    37    18    19 1   
    38    21    36 1   
    39    32    38 1   
    40    33    38 1   
    41    34    38 1   
@<TRIPOS>SUBSTRUCTURE
     1 JT9         1 TEMP              0 ****  ****    0 ROOT
