@<TRIPOS>MOLECULE
JT9
   38    41     1     0     0
SMALL
No Charge or Current Charge


@<TRIPOS>ATOM
      1 C10         32.3570   -48.7080    -8.7700 ca         1 JT9       0.056400
      2 C11         31.4060   -49.4620    -8.0410 ca         1 JT9       0.063600
      3 C13         33.6370   -48.5310    -8.2070 ca         1 JT9      -0.030000
      4 C15         31.7210   -50.0200    -6.7920 ca         1 JT9      -0.161000
      5 C16         30.8530   -48.3430   -10.4910 cc         1 JT9       0.374300
      6 C17         33.9580   -49.0890    -6.9560 ca         1 JT9      -0.145000
      7 C18         29.7530   -49.1250    -9.8060 c          1 JT9       0.432700
      8 C19         33.0010   -49.8340    -6.2470 ca         1 JT9      -0.057000
      9 C20         30.4780   -47.7500   -11.8320 c3         1 JT9      -0.103700
     10 C22         29.7620   -46.3790   -11.7190 c3         1 JT9      -0.079700
     11 C1          27.6330   -44.5280   -16.8700 cc         1 JT9      -0.067000
     12 C2          28.9000   -43.8350   -16.9080 cc         1 JT9       0.056000
     13 C3          29.8420   -43.9110   -15.8760 cd         1 JT9      -0.015300
     14 C4          27.2840   -45.3170   -15.8000 cd         1 JT9       0.125000
     15 C5          28.2530   -45.4000   -14.7580 cd         1 JT9      -0.056000
     16 N6          29.4520   -44.7360   -14.8050 na         1 JT9       0.292400
     17 N7          30.2270   -44.9690   -13.7100 nd         1 JT9      -0.599100
     18 C8          29.4080   -45.7810   -13.0530 cc         1 JT9       0.540300
     19 N9          28.2000   -46.0790   -13.6330 nc         1 JT9      -0.372300
     20 N12         32.1010   -48.1220   -10.0310 nd         1 JT9      -0.516100
     21 N14         30.1390   -49.6360    -8.5980 ns         1 JT9      -0.370100
     22 O21         28.6200   -49.3130   -10.2320 o          1 JT9      -0.528000
     23 Cl25        25.7810   -46.1810   -15.6900 cl         1 JT9      -0.130000
     24 H27         34.3870   -47.9560    -8.7460 ha         1 JT9       0.135000
     25 H29         30.9790   -50.5970    -6.2440 ha         1 JT9       0.122000
     26 H30         34.9510   -48.9420    -6.5360 ha         1 JT9       0.123000
     27 H31         33.2520   -50.2640    -5.2790 ha         1 JT9       0.119000
     28 H32         31.3820   -47.6260   -12.4420 hc         1 JT9       0.077200
     29 H33         29.8400   -48.4490   -12.3880 hc         1 JT9       0.077200
     30 H34         30.4060   -45.6800   -11.1710 hc         1 JT9       0.075700
     31 H35         28.8500   -46.4910   -11.1200 hc         1 JT9       0.075700
     32 H37         31.4490   -42.8580   -14.8540 hc         1 JT9       0.071367
     33 H38         31.9830   -43.8880   -16.1910 hc         1 JT9       0.071367
     34 H36         31.2060   -42.3300   -16.5120 hc         1 JT9       0.071367
     35 H26         26.9530   -44.4190   -17.7070 ha         1 JT9       0.152000
     36 H28         29.4550   -50.1720    -8.0780 hn         1 JT9       0.331500
     37 Cl24        29.1990   -42.8870   -18.3380 cl         1 JT9      -0.163000
     38 C23         31.1880   -43.2100   -15.8590 c3         1 JT9      -0.049800
@<TRIPOS>BOND
     1     1     2 ar  
     2     1     3 ar  
     3     1    20 1   
     4     2     4 ar  
     5     2    21 1   
     6     3     6 ar  
     7     3    24 1   
     8     4     8 ar  
     9     4    25 1   
    10     5     7 1   
    11     5     9 1   
    12     5    20 2   
    13     6     8 ar  
    14     6    26 1   
    15     7    21 1   
    16     7    22 2   
    17     8    27 1   
    18     9    10 1   
    19     9    28 1   
    20     9    29 1   
    21    10    18 1   
    22    10    30 1   
    23    10    31 1   
    24    11    12 1   
    25    11    14 2   
    26    11    35 1   
    27    12    13 2   
    28    12    37 1   
    29    13    16 1   
    30    13    38 1   
    31    14    15 1   
    32    14    23 1   
    33    15    16 1   
    34    15    19 2   
    35    16    17 1   
    36    17    18 2   
    37    18    19 1   
    38    21    36 1   
    39    32    38 1   
    40    33    38 1   
    41    34    38 1   
@<TRIPOS>SUBSTRUCTURE
     1 JT9         1 TEMP              0 ****  ****    0 ROOT
