@<TRIPOS>MOLECULE
JTA
   22    23     1     0     0
SMALL
abcg2


@<TRIPOS>ATOM
      1 C13         -8.2420   -14.7140    29.5220 ca         1 JTA      -0.187000
      2 C15         -7.6150   -13.8170    31.6810 ca         1 JTA      -0.164000
      3 C02         -6.9180   -11.8700    34.8920 c          1 JTA       0.728600
      4 C04         -6.8990   -12.9350    33.8290 ca         1 JTA      -0.356600
      5 C05         -6.1070   -14.0870    33.9540 ca         1 JTA       0.450900
      6 C07         -6.7870   -14.9440    31.9500 ca         1 JTA       0.347000
      7 C08         -6.7410   -15.9370    30.9380 ca         1 JTA      -0.166200
      8 C12         -7.4190   -15.8270    29.7500 ca         1 JTA      -0.036000
      9 C14         -8.3390   -13.7280    30.4760 ca         1 JTA      -0.002000
     10 C16         -7.6650   -12.7880    32.6720 ca         1 JTA       0.268100
     11 N06         -6.0320   -15.0640    33.0730 nb         1 JTA      -0.740000
     12 N09         -5.9420   -17.1480    31.1430 no         1 JTA       0.688200
     13 O01         -6.2420   -12.0120    35.9210 o          1 JTA      -0.679000
     14 O03         -7.6670   -10.8560    34.6340 o          1 JTA      -0.679000
     15 O10         -6.1310   -17.8020    32.1560 o          1 JTA      -0.406000
     16 O11         -5.1420   -17.4530    30.2660 o          1 JTA      -0.406000
     17 O17         -8.4180   -11.7220    32.4780 oh         1 JTA      -0.626100
     18 H1          -8.7950   -14.6420    28.5960 ha         1 JTA       0.110000
     19 H2          -5.4980   -14.1870    34.8460 h4         1 JTA       0.037100
     20 H3          -7.3310   -16.6100    29.0090 ha         1 JTA       0.123000
     21 H4          -8.9680   -12.8650    30.3110 ha         1 JTA       0.130000
     22 H6          -8.2380   -11.1580    33.3570 ho         1 JTA       0.565000
@<TRIPOS>BOND
     1     1     8 ar  
     2     1     9 ar  
     3     1    18 1   
     4     2     6 ar  
     5     2     9 ar  
     6     2    10 ar  
     7     3     4 1   
     8     3    13 1   
     9     3    14 1   
    10     4     5 ar  
    11     4    10 ar  
    12     5    11 ar  
    13     5    19 1   
    14     6     7 ar  
    15     6    11 ar  
    16     7     8 ar  
    17     7    12 1   
    18     8    20 1   
    19     9    21 1   
    20    10    17 1   
    21    12    15 1   
    22    12    16 1   
    23    17    22 1   
@<TRIPOS>SUBSTRUCTURE
     1 JTA         1 TEMP              0 ****  ****    0 ROOT
