@<TRIPOS>MOLECULE
JTA
   22    23     1     0     0
SMALL
No Charge or Current Charge


@<TRIPOS>ATOM
      1 C13         -8.2520   -14.7290    29.5210 ca         1 JTA      -0.187000
      2 C15         -7.5980   -13.8040    31.6830 ca         1 JTA      -0.164000
      3 C02         -6.9120   -11.8670    34.9070 c          1 JTA       0.728600
      4 C04         -6.9060   -12.8990    33.8280 ca         1 JTA      -0.356600
      5 C05         -6.1120   -14.0370    33.9840 ca         1 JTA       0.450900
      6 C07         -6.7730   -14.9290    31.9290 ca         1 JTA       0.347000
      7 C08         -6.7120   -15.9480    30.9550 ca         1 JTA      -0.166200
      8 C12         -7.4390   -15.8460    29.7530 ca         1 JTA      -0.036000
      9 C14         -8.3360   -13.7120    30.4820 ca         1 JTA      -0.002000
     10 C16         -7.6600   -12.7850    32.6530 ca         1 JTA       0.268100
     11 N06         -6.0440   -15.0220    33.0630 nb         1 JTA      -0.740000
     12 N09         -5.8690   -17.1390    31.1830 no         1 JTA       0.688200
     13 O01         -6.2250   -12.0530    35.8960 o          1 JTA      -0.679000
     14 O03         -7.6130   -10.8790    34.7430 o          1 JTA      -0.679000
     15 O10         -6.2180   -17.9240    32.0760 o          1 JTA      -0.406000
     16 O11         -5.0590   -17.4350    30.2930 o          1 JTA      -0.406000
     17 O17         -8.4410   -11.6890    32.4620 oh         1 JTA      -0.626100
     18 H1          -8.8190   -14.6520    28.5960 ha         1 JTA       0.110000
     19 H2          -5.4970   -14.1870    34.8720 h4         1 JTA       0.037100
     20 H3          -7.3810   -16.6360    29.0050 ha         1 JTA       0.123000
     21 H4          -8.9730   -12.8530    30.2820 ha         1 JTA       0.130000
     22 H6          -8.2960   -11.1430    33.2880 ho         1 JTA       0.565000
@<TRIPOS>BOND
     1     1     8 ar  
     2     1     9 ar  
     3     1    18 1   
     4     2     6 ar  
     5     2     9 ar  
     6     2    10 ar  
     7     3     4 1   
     8     3    13 1   
     9     3    14 1   
    10     4     5 ar  
    11     4    10 ar  
    12     5    11 ar  
    13     5    19 1   
    14     6     7 ar  
    15     6    11 ar  
    16     7     8 ar  
    17     7    12 1   
    18     8    20 1   
    19     9    21 1   
    20    10    17 1   
    21    12    15 1   
    22    12    16 1   
    23    17    22 1   
@<TRIPOS>SUBSTRUCTURE
     1 JTA         1 TEMP              0 ****  ****    0 ROOT
