@<TRIPOS>MOLECULE
JTB
   19    20     1     0     0
SMALL
abcg2


@<TRIPOS>ATOM
      1 N1           3.6500     0.3820    -0.0630 na         1 JTB       0.127600
      2 N3           2.6430    -0.4480    -0.0840 nc         1 JTB      -0.558800
      3 C4          -2.3970    -1.2260    -0.0090 ca         1 JTB      -0.051000
      4 C5          -1.3220    -2.0910    -0.0660 ca         1 JTB      -0.154000
      5 C6          -0.0120    -1.6130    -0.0730 ca         1 JTB       0.190100
      6 C7          -0.8800     0.6380     0.0370 ca         1 JTB      -0.044000
      7 C8          -2.1670     0.1420     0.0430 ca         1 JTB       0.070000
      8 C1           2.0150     1.6540     0.0360 cd         1 JTB       0.208900
      9 C2           1.5640     0.3250    -0.0220 cd         1 JTB       0.293500
     10 C3           0.2150    -0.2260    -0.0200 ca         1 JTB      -0.218500
     11 N2           3.3360     1.6450     0.0070 nc         1 JTB      -0.485800
     12 CL1         -3.5090     1.2390     0.1150 cl         1 JTB      -0.202000
     13 H1           4.6070     0.0640    -0.1020 hn         1 JTB       0.407000
     14 H2          -3.4060    -1.6160    -0.0040 ha         1 JTB       0.132000
     15 H3          -1.4910    -3.1600    -0.1060 ha         1 JTB       0.136000
     16 H4          -0.7190     1.7070     0.0770 ha         1 JTB       0.127000
     17 H5           1.4630     2.5770     0.0970 h4         1 JTB       0.058100
     18 H6           1.8440    -2.0800    -0.1330 ho         1 JTB       0.506000
     19 O1           0.9710    -2.5190    -0.1290 oh         1 JTB      -0.540100
@<TRIPOS>BOND
     1     1     2 1   
     2     1    11 1   
     3     1    13 1   
     4     2     9 2   
     5     3     4 ar  
     6     3     7 ar  
     7     3    14 1   
     8     4     5 ar  
     9     4    15 1   
    10     5    10 ar  
    11     5    19 1   
    12     6     7 ar  
    13     6    10 ar  
    14     6    16 1   
    15     7    12 1   
    16     8     9 1   
    17     8    11 2   
    18     8    17 1   
    19     9    10 1   
    20    18    19 1   
@<TRIPOS>SUBSTRUCTURE
     1 JTB         1 TEMP              0 ****  ****    0 ROOT
