@<TRIPOS>MOLECULE
JTB
   19    20     1     0     0
SMALL
No Charge or Current Charge


@<TRIPOS>ATOM
      1 N1           3.7250     0.4320    -0.0600 na         1 JTB       0.127600
      2 N3           2.6940    -0.5000    -0.0800 nc         1 JTB      -0.558800
      3 C4          -2.4360    -1.2230    -0.0080 ca         1 JTB      -0.051000
      4 C5          -1.3630    -2.1260    -0.0690 ca         1 JTB      -0.154000
      5 C6          -0.0400    -1.6580    -0.0750 ca         1 JTB       0.190100
      6 C7          -0.8550     0.6280     0.0410 ca         1 JTB      -0.044000
      7 C8          -2.1780     0.1540     0.0470 ca         1 JTB       0.070000
      8 C1           2.0170     1.6340     0.0270 cd         1 JTB       0.208900
      9 C2           1.6240     0.2750    -0.0240 cd         1 JTB       0.293500
     10 C3           0.2400    -0.2680    -0.0200 ca         1 JTB      -0.218500
     11 N2           3.3280     1.7580     0.0070 nc         1 JTB      -0.485800
     12 Cl1         -3.5170     1.2920     0.1240 cl         1 JTB      -0.202000
     13 H1           4.7130     0.1600    -0.0910 hn         1 JTB       0.407000
     14 H2          -3.4600    -1.5870    -0.0040 ha         1 JTB       0.132000
     15 H3          -1.5580    -3.1950    -0.1120 ha         1 JTB       0.136000
     16 H4          -0.6960     1.7020     0.0850 ha         1 JTB       0.127000
     17 H5           1.3980     2.5200     0.0790 h4         1 JTB       0.058100
     18 H6           1.8020    -2.0350    -0.1290 ho         1 JTB       0.506000
     19 O1           0.9660    -2.5690    -0.1360 oh         1 JTB      -0.540100
@<TRIPOS>BOND
     1     1     2 1   
     2     1    11 1   
     3     1    13 1   
     4     2     9 2   
     5     3     4 ar  
     6     3     7 ar  
     7     3    14 1   
     8     4     5 ar  
     9     4    15 1   
    10     5    10 ar  
    11     5    19 1   
    12     6     7 ar  
    13     6    10 ar  
    14     6    16 1   
    15     7    12 1   
    16     8     9 1   
    17     8    11 2   
    18     8    17 1   
    19     9    10 1   
    20    18    19 1   
@<TRIPOS>SUBSTRUCTURE
     1 JTB         1 TEMP              0 ****  ****    0 ROOT
