@<TRIPOS>MOLECULE
JTC
   44    47     1     0     0
SMALL
bcc


@<TRIPOS>ATOM
      1 N1          -3.8260     8.7210   -20.6540 ns         1 JTC      -0.498400
      2 N3          -1.6690    11.4530   -19.6150 na         1 JTC      -0.120100
      3 C4          -2.2810    10.3090   -20.0330 cc         1 JTC      -0.269900
      4 C5          -0.0520     9.9710   -19.9990 cd         1 JTC      -0.082100
      5 C6          -0.3330    11.2620   -19.5930 cc         1 JTC       0.001700
      6 C7           1.9480     9.4250   -21.8010 ca         1 JTC      -0.052100
      7 C8           2.4220    10.6520   -22.2960 ca         1 JTC       0.111200
      8 C10          2.5960     9.6250   -24.4800 ca         1 JTC       0.121100
      9 C13          3.0030    10.8470   -26.4420 ca         1 JTC       0.079100
     10 C15          1.9690    12.7800   -27.4400 ca         1 JTC       0.070900
     11 C17          4.3440    12.4860   -27.5850 ca         1 JTC       0.070900
     12 C20          2.7990    13.0880   -21.7820 c2         1 JTC      -0.070600
     13 C1          -3.6700    10.0280   -20.2040 c          1 JTC       0.743100
     14 C2          -2.8160     7.8410   -20.8850 cc         1 JTC       0.437800
     15 N2          -1.5660     8.0950   -20.7210 nd         1 JTC      -0.549100
     16 C3          -1.2990     9.3590   -20.2830 cd         1 JTC       0.145400
     17 S1           1.5180     9.2040   -20.0850 ss         1 JTC      -0.193800
     18 C9           2.7420    10.7240   -23.6570 ca         1 JTC      -0.225000
     19 C11          2.1450     8.4080   -23.9860 ca         1 JTC      -0.223000
     20 C12          1.8250     8.3240   -22.6440 ca         1 JTC      -0.051000
     21 O1           2.9080     9.6530   -25.8170 os         1 JTC      -0.246200
     22 C14          1.8710    11.5970   -26.7330 ca         1 JTC       0.122400
     23 C16          3.2080    13.2210   -27.8690 ca         1 JTC       0.091900
     24 C18          4.2390    11.3090   -26.8650 ca         1 JTC       0.122400
     25 F1           5.3300    10.6120   -26.5800 f          1 JTC      -0.096400
     26 F2           5.5290    12.9150   -28.0000 f          1 JTC      -0.107400
     27 F3           3.3040    14.3500   -28.5570 f          1 JTC      -0.108900
     28 F4           0.8840    13.4900   -27.7180 f          1 JTC      -0.107400
     29 F5           0.6850    11.1700   -26.3210 f          1 JTC      -0.096400
     30 C19          2.5650    11.8190   -21.4250 ce         1 JTC      -0.251200
     31 P1           2.9570    14.4900   -20.5800 p5         1 JTC       1.123100
     32 O2           2.3370    13.9660   -19.2760 o          1 JTC      -0.919500
     33 O3           4.4680    14.7250   -20.5080 o          1 JTC      -0.919500
     34 O4           2.1790    15.6300   -21.2420 o          1 JTC      -0.919500
     35 O5          -4.6210    10.7660   -20.0070 o          1 JTC      -0.663500
     36 H1          -4.7730     8.4020   -20.8160 hn         1 JTC       0.306500
     37 H2          -2.1370    12.3100   -19.3660 hn         1 JTC       0.318700
     38 H3           0.3440    12.0570   -19.3120 h4         1 JTC       0.261000
     39 H4           2.9240    13.3270   -22.8390 ha         1 JTC       0.068000
     40 H5          -3.1320     6.8650   -21.2320 h5         1 JTC       0.025800
     41 H6           3.1240    11.6570   -24.0520 ha         1 JTC       0.148000
     42 H7           2.0380     7.5520   -24.6400 ha         1 JTC       0.119000
     43 H8           1.4560     7.3880   -22.2450 ha         1 JTC       0.127000
     44 H9           2.4440    11.6190   -20.3670 ha         1 JTC       0.155000
@<TRIPOS>BOND
     1     1    13 1   
     2     1    14 1   
     3     1    36 1   
     4     2     3 1   
     5     2     5 1   
     6     2    37 1   
     7     3    13 1   
     8     3    16 2   
     9     4     5 2   
    10     4    16 1   
    11     4    17 1   
    12     5    38 1   
    13     6     7 ar  
    14     6    17 1   
    15     6    20 ar  
    16     7    18 ar  
    17     7    30 1   
    18     8    18 ar  
    19     8    19 ar  
    20     8    21 1   
    21     9    21 1   
    22     9    22 ar  
    23     9    24 ar  
    24    10    22 ar  
    25    10    23 ar  
    26    10    28 1   
    27    11    23 ar  
    28    11    24 ar  
    29    11    26 1   
    30    12    30 2   
    31    12    31 1   
    32    12    39 1   
    33    13    35 2   
    34    14    15 2   
    35    14    40 1   
    36    15    16 1   
    37    18    41 1   
    38    19    20 ar  
    39    19    42 1   
    40    20    43 1   
    41    22    29 1   
    42    23    27 1   
    43    24    25 1   
    44    30    44 1   
    45    31    32 1   
    46    31    33 1   
    47    31    34 1   
@<TRIPOS>SUBSTRUCTURE
     1 JTC         1 TEMP              0 ****  ****    0 ROOT
