@<TRIPOS>MOLECULE
JTC
   44    47     1     0     0
SMALL
No Charge or Current Charge


@<TRIPOS>ATOM
      1 N1          -3.7190     8.4810   -20.9600 ns         1 JTC      -0.431400
      2 N3          -1.6540    11.4870   -20.3570 na         1 JTC      -0.069000
      3 C4          -2.2350    10.2190   -20.5480 cc         1 JTC      -0.320600
      4 C5          -0.0460    10.0180   -20.0880 cd         1 JTC      -0.209000
      5 C6          -0.2860    11.3660   -20.0650 cc         1 JTC      -0.031000
      6 C7           1.9850     9.5140   -21.5190 ca         1 JTC      -0.179000
      7 C8           2.5700    10.6860   -22.0550 ca         1 JTC       0.111200
      8 C10          2.5490     9.6510   -24.2710 ca         1 JTC       0.121100
      9 C13          2.8340    10.8590   -26.3490 ca         1 JTC       0.079100
     10 C15          1.7360    12.8940   -27.1430 ca         1 JTC       0.106000
     11 C17          4.0190    12.3940   -27.8350 ca         1 JTC       0.106000
     12 C20          2.8880    13.1530   -21.5870 c2         1 JTC      -0.120600
     13 C1          -3.6000     9.8250   -20.8650 c          1 JTC       0.600600
     14 C2          -2.6800     7.5990   -20.7780 cc         1 JTC       0.437800
     15 N2          -1.4240     7.9460   -20.4870 nd         1 JTC      -0.549100
     16 C3          -1.2240     9.3170   -20.3770 cd         1 JTC       0.145400
     17 S1           1.5710     9.3770   -19.7790 ss         1 JTC       0.060000
     18 C9           2.8520    10.7410   -23.4340 ca         1 JTC      -0.207000
     19 C11          1.9810     8.4910   -23.7300 ca         1 JTC      -0.205000
     20 C12          1.6960     8.4230   -22.3580 ca         1 JTC      -0.033000
     21 O1           2.8210     9.6850   -25.6200 os         1 JTC      -0.246200
     22 C14          1.7020    11.7050   -26.3890 ca         1 JTC       0.157500
     23 C16          2.8940    13.2390   -27.8630 ca         1 JTC       0.127000
     24 C18          3.9870    11.2050   -27.0830 ca         1 JTC       0.157500
     25 F1           5.0730    10.3960   -27.0580 f          1 JTC      -0.131500
     26 F2           5.1320    12.7250   -28.5330 f          1 JTC      -0.142500
     27 F3           2.9240    14.3830   -28.5890 f          1 JTC      -0.144000
     28 F4           0.6500    13.7030   -27.1790 f          1 JTC      -0.142500
     29 F5           0.5740    11.3730   -25.7160 f          1 JTC      -0.131500
     30 C19          2.8940    11.8540   -21.1870 ce         1 JTC      -0.301200
     31 P1           3.2770    14.5330   -20.3660 p5         1 JTC       1.123100
     32 O2           2.1760    14.4960   -19.3620 o          1 JTC      -0.919500
     33 O3           4.5140    14.1490   -19.6280 o          1 JTC      -0.919500
     34 O4           3.3540    15.8370   -21.0840 o          1 JTC      -0.919500
     35 O5          -4.5350    10.5920   -21.0270 o          1 JTC      -0.588000
     36 H1          -4.6380     8.1250   -21.1780 hn         1 JTC       0.306500
     37 H2          -2.1530    12.3710   -20.4190 hn         1 JTC       0.369000
     38 H3           0.3650    12.2150   -19.8800 h4         1 JTC       0.243000
     39 H4           2.6440    13.4790   -22.5930 ha         1 JTC       0.118000
     40 H5          -2.9880     6.5670   -20.8970 h5         1 JTC       0.025800
     41 H6           3.3220    11.6270   -23.8500 ha         1 JTC       0.130000
     42 H7           1.7530     7.6460   -24.3740 ha         1 JTC       0.101000
     43 H8           1.2430     7.5240   -21.9450 ha         1 JTC       0.109000
     44 H9           3.1310    11.6210   -20.1500 ha         1 JTC       0.205000
@<TRIPOS>BOND
     1     1    13 1   
     2     1    14 1   
     3     1    36 1   
     4     2     3 1   
     5     2     5 1   
     6     2    37 1   
     7     3    13 1   
     8     3    16 2   
     9     4     5 2   
    10     4    16 1   
    11     4    17 1   
    12     5    38 1   
    13     6     7 ar  
    14     6    17 1   
    15     6    20 ar  
    16     7    18 ar  
    17     7    30 1   
    18     8    18 ar  
    19     8    19 ar  
    20     8    21 1   
    21     9    21 1   
    22     9    22 ar  
    23     9    24 ar  
    24    10    22 ar  
    25    10    23 ar  
    26    10    28 1   
    27    11    23 ar  
    28    11    24 ar  
    29    11    26 1   
    30    12    30 2   
    31    12    31 1   
    32    12    39 1   
    33    13    35 2   
    34    14    15 2   
    35    14    40 1   
    36    15    16 1   
    37    18    41 1   
    38    19    20 ar  
    39    19    42 1   
    40    20    43 1   
    41    22    29 1   
    42    23    27 1   
    43    24    25 1   
    44    30    44 1   
    45    31    32 1   
    46    31    33 1   
    47    31    34 1   
@<TRIPOS>SUBSTRUCTURE
     1 JTC         1 TEMP              0 ****  ****    0 ROOT
