@<TRIPOS>MOLECULE
JTD
  169   170     1     0     0
SMALL
abcg2


@<TRIPOS>ATOM
      1 C1           5.2670    -5.5560     0.7270 c6         1 JTD       0.361300
      2 C2           1.8130    -4.5550     0.0130 c3         1 JTD       0.167600
      3 C3           3.3110    -4.5810    -0.1930 c6         1 JTD       0.165300
      4 C4           3.6890    -4.9750    -1.6180 c6         1 JTD       0.147300
      5 C5           5.2120    -5.0320    -1.7220 c6         1 JTD       0.159300
      6 C6           5.7520    -5.9860    -0.6620 c6         1 JTD       0.114300
      7 CBT         17.8510    13.3120    -2.5080 c3         1 JTD      -0.088100
      8 CBS         17.8240    11.8160    -2.2270 c3         1 JTD      -0.074400
      9 CBR         16.4510    11.3200    -1.7910 c3         1 JTD      -0.075400
     10 CBQ         16.4090     9.8230    -1.5080 c3         1 JTD      -0.074400
     11 CBP         15.0310     9.3360    -1.0760 c3         1 JTD      -0.074400
     12 CBO         14.9740     7.8380    -0.8020 c3         1 JTD      -0.073400
     13 CBN         13.5890     7.3620    -0.3830 c3         1 JTD      -0.074400
     14 CBM         13.5080     5.8630    -0.1250 c3         1 JTD      -0.073400
     15 CBL         12.1090     5.4040     0.2660 c3         1 JTD      -0.074400
     16 CBK         11.9980     3.9030     0.5010 c3         1 JTD      -0.073400
     17 CBJ         10.5780     3.4610     0.8350 c3         1 JTD      -0.075400
     18 CBI         10.4370     1.9590     1.0490 c3         1 JTD      -0.075400
     19 CBG          8.8540     0.0260     1.4930 c3         1 JTD      -0.106400
     20 CAQ          7.4050    -0.4340     1.6290 c3         1 JTD       0.136300
     21 OAR          6.6470    -0.0540     0.4910 oh         1 JTD      -0.664000
     22 CAP          7.2860    -1.9580     1.8410 c3         1 JTD       0.126300
     23 OAS          8.3010    -2.4820     2.6660 oh         1 JTD      -0.643000
     24 CAN          5.9220    -2.4010     2.4110 c3         1 JTD       0.092700
     25 O1           5.8650    -4.3410     1.0320 os         1 JTD      -0.481000
     26 O5           7.1560    -6.0000    -0.7530 oh         1 JTD      -0.714000
     27 O3           5.5750    -5.4340    -3.0180 oh         1 JTD      -0.721000
     28 O2           3.8680    -5.4850     0.7490 os         1 JTD      -0.448000
     29 O6           1.5440    -4.0190     1.2870 oh         1 JTD      -0.708000
     30 O4           3.1060    -6.2180    -1.9240 os         1 JTD      -0.449000
     31 CAT          2.5730    -6.3360    -3.2270 c3         1 JTD       0.191600
     32 CAU          1.8880    -7.6620    -3.3440 cx         1 JTD      -0.128700
     33 CAV          2.7040    -8.8870    -3.6170 cx         1 JTD      -0.124900
     34 CAW          1.8200    -8.3220    -4.6870 cx         1 JTD      -0.124900
     35 NAO          4.8110    -1.7560     1.7500 ns         1 JTD      -0.504900
     36 CBE          3.6400    -1.4930     2.3610 c          1 JTD       0.610100
     37 OBF          3.4320    -1.7700     3.5340 o          1 JTD      -0.611100
     38 CBU          2.6080    -0.8230     1.4760 c3         1 JTD      -0.149400
     39 CBV          1.2630    -0.6190     2.1510 c3         1 JTD      -0.064400
     40 CBW          0.1860    -0.1640     1.1730 c3         1 JTD      -0.076400
     41 CBX         -1.1660     0.0300     1.8480 c3         1 JTD      -0.075400
     42 CBY         -2.3010     0.3300     0.8780 c3         1 JTD      -0.073400
     43 CBZ         -3.6470     0.5020     1.5730 c3         1 JTD      -0.075400
     44 CCA         -4.8200     0.6200     0.6090 c3         1 JTD      -0.073400
     45 CCB         -6.1620     0.7810     1.3120 c3         1 JTD      -0.074400
     46 CCC         -7.3440     0.8260     0.3510 c3         1 JTD      -0.074400
     47 CCD         -8.6870     0.9780     1.0550 c3         1 JTD      -0.074400
     48 CCE         -9.8700     0.9980     0.0960 c3         1 JTD      -0.074400
     49 CCF        -11.2140     1.1430     0.8000 c3         1 JTD      -0.074400
     50 CCG        -12.3980     1.1550    -0.1590 c3         1 JTD      -0.074400
     51 CCH        -13.7420     1.2950     0.5460 c3         1 JTD      -0.074400
     52 CCI        -14.9270     1.3050    -0.4120 c3         1 JTD      -0.074400
     53 CCJ        -16.2700     1.4410     0.2940 c3         1 JTD      -0.074400
     54 CCK        -17.4560     1.4500    -0.6630 c3         1 JTD      -0.074400
     55 CCL        -18.7990     1.5820     0.0440 c3         1 JTD      -0.074400
     56 CCM        -19.9850     1.5920    -0.9120 c3         1 JTD      -0.074400
     57 CCN        -21.3280     1.7180    -0.2040 c3         1 JTD      -0.074400
     58 CCO        -22.5140     1.7280    -1.1610 c3         1 JTD      -0.074400
     59 CCP        -23.8580     1.8480    -0.4530 c3         1 JTD      -0.074400
     60 CCQ        -25.0430     1.8590    -1.4100 c3         1 JTD      -0.075400
     61 CCR        -26.3890     1.9730    -0.7050 c3         1 JTD      -0.075400
     62 CCS        -27.5640     1.9830    -1.6740 c3         1 JTD      -0.088100
     63 H1           5.5250    -6.3210     1.4730 h2         1 JTD       0.068700
     64 H2           1.3760    -3.9410    -0.7860 h1         1 JTD       0.031700
     65 H3           1.4030    -5.5660    -0.0970 h1         1 JTD       0.031700
     66 H4           3.6930    -3.5680    -0.0150 h1         1 JTD       0.058700
     67 H5           3.3160    -4.1900    -2.2930 h1         1 JTD       0.051700
     68 H6           5.5910    -4.0190    -1.5130 h1         1 JTD       0.052700
     69 H7           5.3360    -6.9820    -0.8590 h1         1 JTD       0.072700
     70 H8          17.5690    13.8850    -1.6220 hc         1 JTD       0.031367
     71 H9          18.8420    13.6470    -2.8150 hc         1 JTD       0.031367
     72 H10         17.1510    13.5780    -3.3030 hc         1 JTD       0.031367
     73 H11         18.1400    11.2680    -3.1190 hc         1 JTD       0.036700
     74 H12         18.5580    11.5780    -1.4500 hc         1 JTD       0.036700
     75 H13         16.1360    11.8690    -0.8960 hc         1 JTD       0.036700
     76 H14         15.7160    11.5620    -2.5670 hc         1 JTD       0.036700
     77 H15         16.7230     9.2750    -2.4030 hc         1 JTD       0.036700
     78 H16         17.1420     9.5800    -0.7310 hc         1 JTD       0.036700
     79 H17         14.7190     9.8820    -0.1780 hc         1 JTD       0.036700
     80 H18         14.2990     9.5880    -1.8510 hc         1 JTD       0.036700
     81 H19         15.2890     7.2920    -1.6980 hc         1 JTD       0.037200
     82 H20         15.7000     7.5820    -0.0220 hc         1 JTD       0.037200
     83 H21         13.2770     7.9040     0.5180 hc         1 JTD       0.037200
     84 H22         12.8650     7.6320    -1.1600 hc         1 JTD       0.037200
     85 H23         13.8280     5.3220    -1.0220 hc         1 JTD       0.037200
     86 H24         14.2180     5.5880     0.6630 hc         1 JTD       0.037200
     87 H25         11.7910     5.9380     1.1690 hc         1 JTD       0.037200
     88 H26         11.4030     5.6960    -0.5200 hc         1 JTD       0.037200
     89 H27         12.3400     3.3680    -0.3920 hc         1 JTD       0.037200
     90 H28         12.6750     3.6070     1.3100 hc         1 JTD       0.037200
     91 H29         10.2330     3.9910     1.7300 hc         1 JTD       0.038200
     92 H30          9.9090     3.7720     0.0250 hc         1 JTD       0.038200
     93 H31         10.8320     1.4290     0.1750 hc         1 JTD       0.037700
     94 H32         11.0570     1.6480     1.8970 hc         1 JTD       0.037700
     95 H33          8.5910     2.0590     2.1510 hc         1 JTD       0.044200
     96 H34          8.3920     1.8490     0.4250 hc         1 JTD       0.044200
     97 H35          9.3230    -0.5120     0.6580 hc         1 JTD       0.051700
     98 H36          9.4140    -0.2590     2.3850 hc         1 JTD       0.051700
     99 H37          6.9470     0.0910     2.4770 h1         1 JTD       0.076700
    100 H38          7.1260    -0.3400    -0.2950 ho         1 JTD       0.443000
    101 H39          7.4470    -2.4250     0.8630 h1         1 JTD       0.091700
    102 H40          8.1950    -2.1230     3.5550 ho         1 JTD       0.439000
    103 H41          5.9020    -2.1000     3.4650 h1         1 JTD       0.069700
    104 H42          6.5270    -4.3990     2.9930 h1         1 JTD       0.054700
    105 H43          4.7840    -4.1710     2.8000 h1         1 JTD       0.054700
    106 H44          7.4810    -6.8300    -0.3920 ho         1 JTD       0.510000
    107 H45          6.5310    -5.5510    -3.0320 ho         1 JTD       0.521000
    108 H46          0.5910    -3.9590     1.3900 ho         1 JTD       0.504000
    109 H47          1.8550    -5.5270    -3.4170 h1         1 JTD       0.030700
    110 H48          3.3580    -6.2560    -3.9860 h1         1 JTD       0.030700
    111 H49          1.0240    -7.7870    -2.6990 hc         1 JTD       0.082700
    112 H50          3.7760    -8.7660    -3.7230 hc         1 JTD       0.072450
    113 H51          2.4070    -9.8150    -3.1450 hc         1 JTD       0.072450
    114 H52          0.9170    -8.8590    -4.9450 hc         1 JTD       0.072450
    115 H53          2.2920    -7.8220    -5.5240 hc         1 JTD       0.072450
    116 H54          4.9430    -1.4390     0.8040 hn         1 JTD       0.326500
    117 H55          3.0120     0.1330     1.1280 hc         1 JTD       0.055200
    118 H56          2.4800    -1.4370     0.5800 hc         1 JTD       0.055200
    119 H57          0.9440    -1.5550     2.6140 hc         1 JTD       0.055700
    120 H58          1.3560     0.1100     2.9610 hc         1 JTD       0.055700
    121 H59          0.4910     0.7660     0.6830 hc         1 JTD       0.033200
    122 H60          0.0890    -0.9120     0.3780 hc         1 JTD       0.033200
    123 H61         -1.4160    -0.8760     2.4110 hc         1 JTD       0.039700
    124 H62         -1.0910     0.8340     2.5890 hc         1 JTD       0.039700
    125 H63         -2.0710     1.2320     0.3010 hc         1 JTD       0.035700
    126 H64         -2.3740    -0.4850     0.1480 hc         1 JTD       0.035700
    127 H65         -3.8170    -0.3520     2.2390 hc         1 JTD       0.037700
    128 H66         -3.6130     1.3850     2.2210 hc         1 JTD       0.037700
    129 H67         -4.6590     1.4670    -0.0670 hc         1 JTD       0.036700
    130 H68         -4.8500    -0.2720    -0.0280 hc         1 JTD       0.036700
    131 H69         -6.3020    -0.0470     2.0160 hc         1 JTD       0.037700
    132 H70         -6.1490     1.6940     1.9180 hc         1 JTD       0.037700
    133 H71         -7.2080     1.6530    -0.3550 hc         1 JTD       0.036700
    134 H72         -7.3530    -0.0880    -0.2530 hc         1 JTD       0.036700
    135 H73         -8.8150     0.1580     1.7700 hc         1 JTD       0.037700
    136 H74         -8.6850     1.8990     1.6490 hc         1 JTD       0.037700
    137 H75         -9.7450     1.8190    -0.6190 hc         1 JTD       0.036700
    138 H76         -9.8700     0.0780    -0.4990 hc         1 JTD       0.036700
    139 H77        -11.3370     0.3240     1.5170 hc         1 JTD       0.037200
    140 H78        -11.2170     2.0650     1.3920 hc         1 JTD       0.037200
    141 H79        -12.2770     1.9750    -0.8750 hc         1 JTD       0.036700
    142 H80        -12.3940     0.2330    -0.7520 hc         1 JTD       0.036700
    143 H81        -13.8620     0.4750     1.2630 hc         1 JTD       0.037200
    144 H82        -13.7470     2.2170     1.1390 hc         1 JTD       0.037200
    145 H83        -14.8070     2.1260    -1.1270 hc         1 JTD       0.036700
    146 H84        -14.9200     0.3840    -1.0060 hc         1 JTD       0.036700
    147 H85        -16.3890     0.6190     1.0100 hc         1 JTD       0.037200
    148 H86        -16.2770     2.3610     0.8890 hc         1 JTD       0.037200
    149 H87        -17.3380     2.2730    -1.3770 hc         1 JTD       0.036700
    150 H88        -17.4480     0.5300    -1.2580 hc         1 JTD       0.036700
    151 H89        -18.9160     0.7580     0.7570 hc         1 JTD       0.037200
    152 H90        -18.8070     2.5020     0.6410 hc         1 JTD       0.037200
    153 H91        -19.8700     2.4170    -1.6230 hc         1 JTD       0.036700
    154 H92        -19.9750     0.6740    -1.5110 hc         1 JTD       0.036700
    155 H93        -21.4430     0.8910     0.5060 hc         1 JTD       0.037200
    156 H94        -21.3380     2.6350     0.3960 hc         1 JTD       0.037200
    157 H95        -22.4010     2.5570    -1.8690 hc         1 JTD       0.036700
    158 H96        -22.5020     0.8130    -1.7640 hc         1 JTD       0.036700
    159 H97        -23.9710     1.0180     0.2540 hc         1 JTD       0.036700
    160 H98        -23.8700     2.7630     0.1510 hc         1 JTD       0.036700
    161 H99        -24.9320     2.6910    -2.1150 hc         1 JTD       0.036700
    162 H100       -25.0280     0.9470    -2.0170 hc         1 JTD       0.036700
    163 H101       -26.5000     1.1420    -0.0020 hc         1 JTD       0.036700
    164 H102       -26.4050     2.8850    -0.0990 hc         1 JTD       0.036700
    165 H103       -28.5180     2.0570    -1.1510 hc         1 JTD       0.031367
    166 H104       -27.4970     2.8260    -2.3640 hc         1 JTD       0.031367
    167 H105       -27.5860     1.0690    -2.2720 hc         1 JTD       0.031367
    168 CAM          5.7600    -3.9170     2.3760 c3         1 JTD       0.145600
    169 CBH          8.9930     1.5290     1.2800 c3         1 JTD      -0.074400
@<TRIPOS>BOND
     1     1     6 1   
     2     1    25 1   
     3     1    28 1   
     4     1    63 1   
     5     2     3 1   
     6     2    29 1   
     7     2    64 1   
     8     2    65 1   
     9     3     4 1   
    10     3    28 1   
    11     3    66 1   
    12     4     5 1   
    13     4    30 1   
    14     4    67 1   
    15     5     6 1   
    16     5    27 1   
    17     5    68 1   
    18     6    26 1   
    19     6    69 1   
    20     7     8 1   
    21     7    70 1   
    22     7    71 1   
    23     7    72 1   
    24     8     9 1   
    25     8    73 1   
    26     8    74 1   
    27     9    10 1   
    28     9    75 1   
    29     9    76 1   
    30    10    11 1   
    31    10    77 1   
    32    10    78 1   
    33    11    12 1   
    34    11    79 1   
    35    11    80 1   
    36    12    13 1   
    37    12    81 1   
    38    12    82 1   
    39    13    14 1   
    40    13    83 1   
    41    13    84 1   
    42    14    15 1   
    43    14    85 1   
    44    14    86 1   
    45    15    16 1   
    46    15    87 1   
    47    15    88 1   
    48    16    17 1   
    49    16    89 1   
    50    16    90 1   
    51    17    18 1   
    52    17    91 1   
    53    17    92 1   
    54    18    93 1   
    55    18    94 1   
    56    18   169 1   
    57    19    20 1   
    58    19    97 1   
    59    19    98 1   
    60    19   169 1   
    61    20    21 1   
    62    20    22 1   
    63    20    99 1   
    64    21   100 1   
    65    22    23 1   
    66    22    24 1   
    67    22   101 1   
    68    23   102 1   
    69    24    35 1   
    70    24   103 1   
    71    24   168 1   
    72    25   168 1   
    73    26   106 1   
    74    27   107 1   
    75    29   108 1   
    76    30    31 1   
    77    31    32 1   
    78    31   109 1   
    79    31   110 1   
    80    32    33 1   
    81    32    34 1   
    82    32   111 1   
    83    33    34 1   
    84    33   112 1   
    85    33   113 1   
    86    34   114 1   
    87    34   115 1   
    88    35    36 1   
    89    35   116 1   
    90    36    37 2   
    91    36    38 1   
    92    38    39 1   
    93    38   117 1   
    94    38   118 1   
    95    39    40 1   
    96    39   119 1   
    97    39   120 1   
    98    40    41 1   
    99    40   121 1   
   100    40   122 1   
   101    41    42 1   
   102    41   123 1   
   103    41   124 1   
   104    42    43 1   
   105    42   125 1   
   106    42   126 1   
   107    43    44 1   
   108    43   127 1   
   109    43   128 1   
   110    44    45 1   
   111    44   129 1   
   112    44   130 1   
   113    45    46 1   
   114    45   131 1   
   115    45   132 1   
   116    46    47 1   
   117    46   133 1   
   118    46   134 1   
   119    47    48 1   
   120    47   135 1   
   121    47   136 1   
   122    48    49 1   
   123    48   137 1   
   124    48   138 1   
   125    49    50 1   
   126    49   139 1   
   127    49   140 1   
   128    50    51 1   
   129    50   141 1   
   130    50   142 1   
   131    51    52 1   
   132    51   143 1   
   133    51   144 1   
   134    52    53 1   
   135    52   145 1   
   136    52   146 1   
   137    53    54 1   
   138    53   147 1   
   139    53   148 1   
   140    54    55 1   
   141    54   149 1   
   142    54   150 1   
   143    55    56 1   
   144    55   151 1   
   145    55   152 1   
   146    56    57 1   
   147    56   153 1   
   148    56   154 1   
   149    57    58 1   
   150    57   155 1   
   151    57   156 1   
   152    58    59 1   
   153    58   157 1   
   154    58   158 1   
   155    59    60 1   
   156    59   159 1   
   157    59   160 1   
   158    60    61 1   
   159    60   161 1   
   160    60   162 1   
   161    61    62 1   
   162    61   163 1   
   163    61   164 1   
   164    62   165 1   
   165    62   166 1   
   166    62   167 1   
   167    95   169 1   
   168    96   169 1   
   169   104   168 1   
   170   105   168 1   
@<TRIPOS>SUBSTRUCTURE
     1 JTD         1 TEMP              0 ****  ****    0 ROOT
