@<TRIPOS>MOLECULE
JTD
  169   170     1     0     0
SMALL
No Charge or Current Charge


@<TRIPOS>ATOM
      1 C1           7.2540    -6.8270     0.1660 c6         1 JTD       0.361300
      2 C2           4.1210    -8.8660     0.8320 c3         1 JTD       0.167600
      3 C3           5.0150    -7.8210     0.0850 c6         1 JTD       0.165300
      4 C4           5.1220    -8.1180    -1.4440 c6         1 JTD       0.147300
      5 C5           6.0520    -7.0240    -2.0750 c6         1 JTD       0.159300
      6 C6           7.4420    -7.0280    -1.3750 c6         1 JTD       0.114300
      7 CBT         13.0800    15.7130    -0.7130 c3         1 JTD      -0.088100
      8 CBS         13.4250    14.2120    -0.6770 c3         1 JTD      -0.074400
      9 CBR         12.1810    13.3100    -0.5270 c3         1 JTD      -0.075400
     10 CBQ         12.5250    11.8040    -0.4910 c3         1 JTD      -0.074400
     11 CBP         11.2800    10.9040    -0.3330 c3         1 JTD      -0.074400
     12 CBO         11.6220     9.3980    -0.2880 c3         1 JTD      -0.073400
     13 CBN         10.3760     8.5020    -0.1140 c3         1 JTD      -0.074400
     14 CBM         10.7150     6.9960    -0.0570 c3         1 JTD      -0.073400
     15 CBL          9.4690     6.1040     0.1410 c3         1 JTD      -0.074400
     16 CBK          9.8080     4.5980     0.2090 c3         1 JTD      -0.073400
     17 CBJ          8.5670     3.7060     0.4390 c3         1 JTD      -0.075400
     18 CBI          8.9130     2.2030     0.5190 c3         1 JTD      -0.075400
     19 CBG          8.0480    -0.1990     0.8690 c3         1 JTD      -0.106400
     20 CAQ          6.8670    -1.1420     1.2410 c3         1 JTD       0.136300
     21 OAR          5.8630    -1.0140     0.2180 oh         1 JTD      -0.664000
     22 CAP          7.3040    -2.6470     1.3970 c3         1 JTD       0.126300
     23 OAS          8.4330    -2.7460     2.2940 oh         1 JTD      -0.643000
     24 CAN          6.1920    -3.6340     1.9030 c3         1 JTD       0.092700
     25 O1           6.7800    -5.4930     0.4380 os         1 JTD      -0.481000
     26 O5           8.2770    -5.9940    -1.9550 oh         1 JTD      -0.714000
     27 O3           6.2330    -7.1480    -3.4980 oh         1 JTD      -0.721000
     28 O2           6.3330    -7.8030     0.7030 os         1 JTD      -0.448000
     29 O6           3.9870    -8.6030     2.2430 oh         1 JTD      -0.708000
     30 O4           5.5670    -9.4890    -1.6600 os         1 JTD      -0.449000
     31 CAT          5.4740   -10.0420    -2.9850 c3         1 JTD       0.191600
     32 CAU          5.6750   -11.5460    -2.8520 cx         1 JTD      -0.128700
     33 CAV          7.0610   -12.1440    -2.7620 cx         1 JTD      -0.124900
     34 CAW          6.2240   -12.3590    -4.0020 cx         1 JTD      -0.124900
     35 NAO          4.9050    -3.4520     1.2110 ns         1 JTD      -0.504900
     36 CBE          3.7040    -3.9940     1.6020 c          1 JTD       0.610100
     37 OBF          3.5850    -4.6610     2.6200 o          1 JTD      -0.611100
     38 CBU          2.5330    -3.7370     0.6460 c3         1 JTD      -0.149400
     39 CBV          1.4840    -2.7750     1.2530 c3         1 JTD      -0.064400
     40 CBW          0.2470    -2.5920     0.3440 c3         1 JTD      -0.076400
     41 CBX         -0.8300    -1.6690     0.9550 c3         1 JTD      -0.075400
     42 CBY         -2.0840    -1.5330     0.0610 c3         1 JTD      -0.073400
     43 CBZ         -3.1790    -0.6340     0.6790 c3         1 JTD      -0.075400
     44 CCA         -4.4510    -0.5420    -0.1940 c3         1 JTD      -0.073400
     45 CCB         -5.5560     0.3380     0.4340 c3         1 JTD      -0.074400
     46 CCC         -6.8500     0.3860    -0.4100 c3         1 JTD      -0.074400
     47 CCD         -7.9590     1.2500     0.2330 c3         1 JTD      -0.074400
     48 CCE         -9.2760     1.2560    -0.5770 c3         1 JTD      -0.074400
     49 CCF        -10.3890     2.0960     0.0890 c3         1 JTD      -0.074400
     50 CCG        -11.7310     2.0530    -0.6770 c3         1 JTD      -0.074400
     51 CCH        -12.8490     2.8620     0.0180 c3         1 JTD      -0.074400
     52 CCI        -14.2140     2.7650    -0.7010 c3         1 JTD      -0.074400
     53 CCJ        -15.3350     3.5430     0.0250 c3         1 JTD      -0.074400
     54 CCK        -16.7170     3.4030    -0.6540 c3         1 JTD      -0.074400
     55 CCL        -17.8400     4.1540     0.0980 c3         1 JTD      -0.074400
     56 CCM        -19.2320     3.9830    -0.5520 c3         1 JTD      -0.074400
     57 CCN        -20.3540     4.7160     0.2170 c3         1 JTD      -0.074400
     58 CCO        -21.7510     4.5240    -0.4170 c3         1 JTD      -0.074400
     59 CCP        -22.8730     5.2500     0.3580 c3         1 JTD      -0.074400
     60 CCQ        -24.2710     5.0490    -0.2700 c3         1 JTD      -0.075400
     61 CCR        -25.3930     5.7730     0.5070 c3         1 JTD      -0.075400
     62 CCS        -26.7870     5.5740    -0.1190 c3         1 JTD      -0.088100
     63 H1           8.2320    -6.9600     0.6530 h2         1 JTD       0.068700
     64 H2           3.1310    -8.8670     0.3560 h1         1 JTD       0.031700
     65 H3           4.5540    -9.8640     0.6810 h1         1 JTD       0.031700
     66 H4           4.5500    -6.8330     0.2210 h1         1 JTD       0.058700
     67 H5           4.1170    -8.0140    -1.8790 h1         1 JTD       0.051700
     68 H6           5.5820    -6.0500    -1.8690 h1         1 JTD       0.052700
     69 H7           7.9040    -8.0150    -1.5290 h1         1 JTD       0.072700
     70 H8          12.5740    16.0180     0.2110 hc         1 JTD       0.031367
     71 H9          13.9920    16.3130    -0.8180 hc         1 JTD       0.031367
     72 H10         12.4220    15.9400    -1.5600 hc         1 JTD       0.031367
     73 H11         13.9590    13.9470    -1.5980 hc         1 JTD       0.036700
     74 H12         14.1120    14.0250     0.1570 hc         1 JTD       0.036700
     75 H13         11.6500    13.5800     0.3940 hc         1 JTD       0.036700
     76 H14         11.4940    13.5020    -1.3610 hc         1 JTD       0.036700
     77 H15         13.0520    11.5330    -1.4140 hc         1 JTD       0.036700
     78 H16         13.2150    11.6130     0.3400 hc         1 JTD       0.036700
     79 H17         10.7520    11.1800     0.5880 hc         1 JTD       0.036700
     80 H18         10.5920    11.0920    -1.1670 hc         1 JTD       0.036700
     81 H19         12.1420     9.1180    -1.2130 hc         1 JTD       0.037200
     82 H20         12.3180     9.2120     0.5400 hc         1 JTD       0.037200
     83 H21          9.8540     8.7880     0.8070 hc         1 JTD       0.037200
     84 H22          9.6830     8.6840    -0.9450 hc         1 JTD       0.037200
     85 H23         11.2240     6.7050    -0.9850 hc         1 JTD       0.037200
     86 H24         11.4190     6.8170     0.7650 hc         1 JTD       0.037200
     87 H25          8.9590     6.4000     1.0670 hc         1 JTD       0.037200
     88 H26          8.7650     6.2780    -0.6820 hc         1 JTD       0.037200
     89 H27         10.3010     4.2980    -0.7230 hc         1 JTD       0.037200
     90 H28         10.5270     4.4290     1.0210 hc         1 JTD       0.037200
     91 H29          8.0720     4.0110     1.3690 hc         1 JTD       0.038200
     92 H30          7.8490     3.8690    -0.3750 hc         1 JTD       0.038200
     93 H31          9.3920     1.8930    -0.4180 hc         1 JTD       0.037700
     94 H32          9.6470     2.0470     1.3200 hc         1 JTD       0.037700
     95 H33          7.2040     1.6160     1.7180 hc         1 JTD       0.044200
     96 H34          6.9530     1.4650    -0.0230 hc         1 JTD       0.044200
     97 H35          8.4800    -0.5220    -0.0870 hc         1 JTD       0.051700
     98 H36          8.8420    -0.3020     1.6180 hc         1 JTD       0.051700
     99 H37          6.4570    -0.8100     2.2060 h1         1 JTD       0.076700
    100 H38          5.6710    -0.0570     0.1210 ho         1 JTD       0.443000
    101 H39          7.6080    -2.9860     0.3970 h1         1 JTD       0.091700
    102 H40          8.1880    -2.3060     3.1370 ho         1 JTD       0.439000
    103 H41          6.0120    -3.4050     2.9620 h1         1 JTD       0.069700
    104 H42          7.6260    -5.2300     2.3430 h1         1 JTD       0.054700
    105 H43          5.9370    -5.7590     2.3410 h1         1 JTD       0.054700
    106 H44          8.0880    -5.1750    -1.4370 ho         1 JTD       0.510000
    107 H45          7.0970    -6.6980    -3.6670 ho         1 JTD       0.521000
    108 H46          3.4890    -9.3590     2.6310 ho         1 JTD       0.504000
    109 H47          4.4880    -9.8450    -3.4250 h1         1 JTD       0.030700
    110 H48          6.2470    -9.6310    -3.6450 h1         1 JTD       0.030700
    111 H49          4.8990   -12.0150    -2.2520 hc         1 JTD       0.082700
    112 H50          7.9130   -11.4710    -2.8350 hc         1 JTD       0.072450
    113 H51          7.2050   -12.9890    -2.0930 hc         1 JTD       0.072450
    114 H52          5.8060   -13.3500    -4.1670 hc         1 JTD       0.072450
    115 H53          6.5180   -11.8340    -4.9090 hc         1 JTD       0.072450
    116 H54          4.8970    -2.8470     0.3970 hn         1 JTD       0.326500
    117 H55          2.9020    -3.3090    -0.2940 hc         1 JTD       0.055200
    118 H56          2.0450    -4.6970     0.4420 hc         1 JTD       0.055200
    119 H57          1.1570    -3.1650     2.2260 hc         1 JTD       0.055700
    120 H58          1.9500    -1.7990     1.4390 hc         1 JTD       0.055700
    121 H59          0.5670    -2.1830    -0.6230 hc         1 JTD       0.033200
    122 H60         -0.1980    -3.5750     0.1440 hc         1 JTD       0.033200
    123 H61         -1.1300    -2.0650     1.9340 hc         1 JTD       0.039700
    124 H62         -0.3990    -0.6750     1.1290 hc         1 JTD       0.039700
    125 H63         -1.7900    -1.1250    -0.9140 hc         1 JTD       0.035700
    126 H64         -2.5020    -2.5310    -0.1220 hc         1 JTD       0.035700
    127 H65         -3.4500    -1.0270     1.6670 hc         1 JTD       0.037700
    128 H66         -2.7740     0.3730     0.8360 hc         1 JTD       0.037700
    129 H67         -4.1860    -0.1390    -1.1790 hc         1 JTD       0.036700
    130 H68         -4.8470    -1.5530    -0.3570 hc         1 JTD       0.036700
    131 H69         -5.7950    -0.0470     1.4340 hc         1 JTD       0.037700
    132 H70         -5.1730     1.3570     0.5670 hc         1 JTD       0.037700
    133 H71         -6.6180     0.7800    -1.4070 hc         1 JTD       0.036700
    134 H72         -7.2250    -0.6360    -0.5480 hc         1 JTD       0.036700
    135 H73         -8.1630     0.8740     1.2430 hc         1 JTD       0.037700
    136 H74         -7.5970     2.2790     0.3410 hc         1 JTD       0.037700
    137 H75         -9.0810     1.6470    -1.5840 hc         1 JTD       0.036700
    138 H76         -9.6280     0.2240    -0.6960 hc         1 JTD       0.036700
    139 H77        -10.5500     1.7290     1.1110 hc         1 JTD       0.037200
    140 H78        -10.0540     3.1380     0.1730 hc         1 JTD       0.037200
    141 H79        -11.5810     2.4400    -1.6930 hc         1 JTD       0.036700
    142 H80        -12.0520     1.0080    -0.7770 hc         1 JTD       0.036700
    143 H81        -12.9630     2.5000     1.0480 hc         1 JTD       0.037200
    144 H82        -12.5470     3.9150     0.0810 hc         1 JTD       0.037200
    145 H83        -14.1120     3.1470    -1.7250 hc         1 JTD       0.036700
    146 H84        -14.5030     1.7090    -0.7800 hc         1 JTD       0.036700
    147 H85        -15.4080     3.1830     1.0590 hc         1 JTD       0.037200
    148 H86        -15.0630     4.6050     0.0750 hc         1 JTD       0.037200
    149 H87        -16.6550     3.7800    -1.6820 hc         1 JTD       0.036700
    150 H88        -16.9790     2.3390    -0.7170 hc         1 JTD       0.036700
    151 H89        -17.8820     3.7930     1.1330 hc         1 JTD       0.037200
    152 H90        -17.5920     5.2220     0.1420 hc         1 JTD       0.037200
    153 H91        -19.1970     4.3560    -1.5840 hc         1 JTD       0.036700
    154 H92        -19.4730     2.9140    -0.6070 hc         1 JTD       0.036700
    155 H93        -20.3770     4.3530     1.2520 hc         1 JTD       0.037200
    156 H94        -20.1210     5.7880     0.2580 hc         1 JTD       0.037200
    157 H95        -21.7310     4.8920    -1.4510 hc         1 JTD       0.036700
    158 H96        -21.9810     3.4520    -0.4620 hc         1 JTD       0.036700
    159 H97        -22.8890     4.8860     1.3940 hc         1 JTD       0.036700
    160 H98        -22.6470     6.3230     0.3990 hc         1 JTD       0.036700
    161 H99        -24.2570     5.4130    -1.3050 hc         1 JTD       0.036700
    162 H100       -24.4970     3.9760    -0.3100 hc         1 JTD       0.036700
    163 H101       -25.4120     5.4100     1.5420 hc         1 JTD       0.036700
    164 H102       -25.1720     6.8470     0.5490 hc         1 JTD       0.036700
    165 H103       -27.5480     6.1050     0.4660 hc         1 JTD       0.031367
    166 H104       -26.8120     5.9610    -1.1450 hc         1 JTD       0.031367
    167 H105       -27.0540     4.5100    -0.1430 hc         1 JTD       0.031367
    168 CAM          6.6640    -5.1170     1.8270 c3         1 JTD       0.145600
    169 CBH          7.6820     1.3050     0.7800 c3         1 JTD      -0.074400
@<TRIPOS>BOND
     1     1     6 1   
     2     1    25 1   
     3     1    28 1   
     4     1    63 1   
     5     2     3 1   
     6     2    29 1   
     7     2    64 1   
     8     2    65 1   
     9     3     4 1   
    10     3    28 1   
    11     3    66 1   
    12     4     5 1   
    13     4    30 1   
    14     4    67 1   
    15     5     6 1   
    16     5    27 1   
    17     5    68 1   
    18     6    26 1   
    19     6    69 1   
    20     7     8 1   
    21     7    70 1   
    22     7    71 1   
    23     7    72 1   
    24     8     9 1   
    25     8    73 1   
    26     8    74 1   
    27     9    10 1   
    28     9    75 1   
    29     9    76 1   
    30    10    11 1   
    31    10    77 1   
    32    10    78 1   
    33    11    12 1   
    34    11    79 1   
    35    11    80 1   
    36    12    13 1   
    37    12    81 1   
    38    12    82 1   
    39    13    14 1   
    40    13    83 1   
    41    13    84 1   
    42    14    15 1   
    43    14    85 1   
    44    14    86 1   
    45    15    16 1   
    46    15    87 1   
    47    15    88 1   
    48    16    17 1   
    49    16    89 1   
    50    16    90 1   
    51    17    18 1   
    52    17    91 1   
    53    17    92 1   
    54    18    93 1   
    55    18    94 1   
    56    18   169 1   
    57    19    20 1   
    58    19    97 1   
    59    19    98 1   
    60    19   169 1   
    61    20    21 1   
    62    20    22 1   
    63    20    99 1   
    64    21   100 1   
    65    22    23 1   
    66    22    24 1   
    67    22   101 1   
    68    23   102 1   
    69    24    35 1   
    70    24   103 1   
    71    24   168 1   
    72    25   168 1   
    73    26   106 1   
    74    27   107 1   
    75    29   108 1   
    76    30    31 1   
    77    31    32 1   
    78    31   109 1   
    79    31   110 1   
    80    32    33 1   
    81    32    34 1   
    82    32   111 1   
    83    33    34 1   
    84    33   112 1   
    85    33   113 1   
    86    34   114 1   
    87    34   115 1   
    88    35    36 1   
    89    35   116 1   
    90    36    37 2   
    91    36    38 1   
    92    38    39 1   
    93    38   117 1   
    94    38   118 1   
    95    39    40 1   
    96    39   119 1   
    97    39   120 1   
    98    40    41 1   
    99    40   121 1   
   100    40   122 1   
   101    41    42 1   
   102    41   123 1   
   103    41   124 1   
   104    42    43 1   
   105    42   125 1   
   106    42   126 1   
   107    43    44 1   
   108    43   127 1   
   109    43   128 1   
   110    44    45 1   
   111    44   129 1   
   112    44   130 1   
   113    45    46 1   
   114    45   131 1   
   115    45   132 1   
   116    46    47 1   
   117    46   133 1   
   118    46   134 1   
   119    47    48 1   
   120    47   135 1   
   121    47   136 1   
   122    48    49 1   
   123    48   137 1   
   124    48   138 1   
   125    49    50 1   
   126    49   139 1   
   127    49   140 1   
   128    50    51 1   
   129    50   141 1   
   130    50   142 1   
   131    51    52 1   
   132    51   143 1   
   133    51   144 1   
   134    52    53 1   
   135    52   145 1   
   136    52   146 1   
   137    53    54 1   
   138    53   147 1   
   139    53   148 1   
   140    54    55 1   
   141    54   149 1   
   142    54   150 1   
   143    55    56 1   
   144    55   151 1   
   145    55   152 1   
   146    56    57 1   
   147    56   153 1   
   148    56   154 1   
   149    57    58 1   
   150    57   155 1   
   151    57   156 1   
   152    58    59 1   
   153    58   157 1   
   154    58   158 1   
   155    59    60 1   
   156    59   159 1   
   157    59   160 1   
   158    60    61 1   
   159    60   161 1   
   160    60   162 1   
   161    61    62 1   
   162    61   163 1   
   163    61   164 1   
   164    62   165 1   
   165    62   166 1   
   166    62   167 1   
   167    95   169 1   
   168    96   169 1   
   169   104   168 1   
   170   105   168 1   
@<TRIPOS>SUBSTRUCTURE
     1 JTD         1 TEMP              0 ****  ****    0 ROOT
