@<TRIPOS>MOLECULE
JTE
   36    37     1     0     0
SMALL
No Charge or Current Charge


@<TRIPOS>ATOM
      1 OAS          5.1810    -0.0040    -1.6760 o          1 JTE      -0.720500
      2 CAR          4.5960    -0.3940    -0.6760 c          1 JTE       0.725000
      3 OAT          4.5230    -1.5730    -0.3590 o          1 JTE      -0.720500
      4 CAP          3.8920     0.6590     0.2070 c3         1 JTE      -0.180400
      5 CAQ          4.4900     0.7070     1.6350 c3         1 JTE      -0.051100
      6 CAN          2.3740     0.4530     0.1920 ca         1 JTE       0.051700
      7 CAO          1.5690     1.2640    -0.6300 ca         1 JTE      -0.165000
      8 CAK          0.1760     1.0970    -0.6570 ca         1 JTE       0.175000
      9 FAL         -0.5440     1.8850    -1.4870 f          1 JTE      -0.200000
     10 CAM          1.7550    -0.5390     0.9790 ca         1 JTE      -0.117000
     11 CAI          0.3610    -0.7080     0.9510 ca         1 JTE      -0.082000
     12 CAJ         -0.4620     0.1090     0.1380 cp         1 JTE      -0.129000
     13 CAG         -1.9450    -0.0900     0.1300 cp         1 JTE       0.008000
     14 CAH         -2.8390     1.0070     0.1960 ca         1 JTE      -0.099000
     15 CAD         -4.2330     0.8150     0.1970 ca         1 JTE      -0.084800
     16 CAE         -5.1700     2.0120     0.2640 c3         1 JTE      -0.040300
     17 CAC         -4.7520    -0.4900     0.1330 ca         1 JTE      -0.123000
     18 CAB         -3.8890    -1.5990     0.0770 ca         1 JTE      -0.084800
     19 CAA         -4.4550    -3.0090     0.0070 c3         1 JTE      -0.040300
     20 CAF         -2.4970    -1.3930     0.0760 ca         1 JTE      -0.099000
     21 H2           4.1000     1.6390    -0.2380 hc         1 JTE       0.037700
     22 H3           4.4010    -0.2590     2.1450 hc         1 JTE       0.017367
     23 H4           5.5540     0.9670     1.5920 hc         1 JTE       0.017367
     24 H5           3.9790     1.4650     2.2410 hc         1 JTE       0.017367
     25 H6           2.0230     2.0270    -1.2560 ha         1 JTE       0.123000
     26 H7           2.3530    -1.1890     1.6120 ha         1 JTE       0.126000
     27 H8          -0.0890    -1.4760     1.5760 ha         1 JTE       0.099000
     28 H9          -2.4410     2.0170     0.2570 ha         1 JTE       0.118000
     29 H10         -5.3810     2.3980    -0.7410 hc         1 JTE       0.034867
     30 H11         -6.1270     1.7460     0.7280 hc         1 JTE       0.034867
     31 H12         -4.7340     2.8280     0.8530 hc         1 JTE       0.034867
     32 H13         -5.8290    -0.6430     0.1280 ha         1 JTE       0.096000
     33 H14         -4.5740    -3.3300    -1.0350 hc         1 JTE       0.034867
     34 H15         -3.7960    -3.7290     0.5070 hc         1 JTE       0.034867
     35 H16         -5.4370    -3.0710     0.4910 hc         1 JTE       0.034867
     36 H17         -1.8320    -2.2510     0.0220 ha         1 JTE       0.118000
@<TRIPOS>BOND
     1     1     2 1   
     2     2     3 1   
     3     2     4 1   
     4     4     5 1   
     5     4     6 1   
     6     4    21 1   
     7     5    22 1   
     8     5    23 1   
     9     5    24 1   
    10     6     7 ar  
    11     6    10 ar  
    12     7     8 ar  
    13     7    25 1   
    14     8     9 1   
    15     8    12 ar  
    16    10    11 ar  
    17    10    26 1   
    18    11    12 ar  
    19    11    27 1   
    20    12    13 1   
    21    13    14 ar  
    22    13    20 ar  
    23    14    15 ar  
    24    14    28 1   
    25    15    16 1   
    26    15    17 ar  
    27    16    29 1   
    28    16    30 1   
    29    16    31 1   
    30    17    18 ar  
    31    17    32 1   
    32    18    19 1   
    33    18    20 ar  
    34    19    33 1   
    35    19    34 1   
    36    19    35 1   
    37    20    36 1   
@<TRIPOS>SUBSTRUCTURE
     1 JTE         1 TEMP              0 ****  ****    0 ROOT
