@<TRIPOS>MOLECULE
JTE
   36    37     1     0     0
SMALL
bcc


@<TRIPOS>ATOM
      1 OAS          4.0440    -1.2130    -1.3660 o          1 JTE      -0.825800
      2 CAR          4.5750    -0.6930    -0.3650 c          1 JTE       0.935600
      3 OAT          5.6250    -1.0560     0.1950 o          1 JTE      -0.825800
      4 CAP          3.8580     0.5620     0.2040 c3         1 JTE      -0.180400
      5 CAQ          4.3290     0.9640     1.5980 c3         1 JTE      -0.051100
      6 CAN          2.3640     0.3900     0.1580 ca         1 JTE       0.051700
      7 CAO          1.5700     1.2160    -0.6280 ca         1 JTE      -0.183000
      8 CAK          0.1970     1.0570    -0.6340 ca         1 JTE       0.139900
      9 FAL         -0.5250     1.8640    -1.4330 f          1 JTE      -0.164900
     10 CAM          1.7300    -0.5870     0.9260 ca         1 JTE      -0.135000
     11 CAI          0.3540    -0.7280     0.9040 ca         1 JTE      -0.100000
     12 CAJ         -0.4590     0.0980     0.1230 cp         1 JTE      -0.129000
     13 CAG         -1.9270    -0.0750     0.0990 cp         1 JTE       0.008000
     14 CAH         -2.7910     1.0020     0.2850 ca         1 JTE      -0.117000
     15 CAD         -4.1710     0.8200     0.2940 ca         1 JTE      -0.084800
     16 CAE         -5.0970     1.9870     0.4780 c3         1 JTE      -0.040300
     17 CAC         -4.6780    -0.4640     0.1120 ca         1 JTE      -0.141000
     18 CAB         -3.8390    -1.5590    -0.0750 ca         1 JTE      -0.084800
     19 CAA         -4.4110    -2.9300    -0.2900 c3         1 JTE      -0.040300
     20 CAF         -2.4650    -1.3490    -0.0780 ca         1 JTE      -0.117000
     21 H2           4.1100     1.3810    -0.4800 hc         1 JTE       0.037700
     22 H3           4.1540     0.1730     2.3290 hc         1 JTE       0.017367
     23 H4           5.3960     1.1810     1.5990 hc         1 JTE       0.017367
     24 H5           3.8060     1.8570     1.9420 hc         1 JTE       0.017367
     25 H6           2.0180     1.9860    -1.2460 ha         1 JTE       0.141000
     26 H7           2.3160    -1.2480     1.5540 ha         1 JTE       0.144000
     27 H8          -0.1140    -1.4900     1.5150 ha         1 JTE       0.117000
     28 H9          -2.3910     1.9940     0.4600 ha         1 JTE       0.136000
     29 H10         -5.4200     2.3840    -0.4870 hc         1 JTE       0.034867
     30 H11         -5.9950     1.7020     1.0260 hc         1 JTE       0.034867
     31 H12         -4.6140     2.8010     1.0180 hc         1 JTE       0.034867
     32 H13         -5.7530    -0.6130     0.1230 ha         1 JTE       0.114000
     33 H14         -4.8410    -3.0220    -1.2890 hc         1 JTE       0.034867
     34 H15         -3.6500    -3.7030    -0.1880 hc         1 JTE       0.034867
     35 H16         -5.2080    -3.1470     0.4220 hc         1 JTE       0.034867
     36 H17         -1.7980    -2.1920    -0.2250 ha         1 JTE       0.136000
@<TRIPOS>BOND
     1     1     2 1   
     2     2     3 1   
     3     2     4 1   
     4     4     5 1   
     5     4     6 1   
     6     4    21 1   
     7     5    22 1   
     8     5    23 1   
     9     5    24 1   
    10     6     7 ar  
    11     6    10 ar  
    12     7     8 ar  
    13     7    25 1   
    14     8     9 1   
    15     8    12 ar  
    16    10    11 ar  
    17    10    26 1   
    18    11    12 ar  
    19    11    27 1   
    20    12    13 1   
    21    13    14 ar  
    22    13    20 ar  
    23    14    15 ar  
    24    14    28 1   
    25    15    16 1   
    26    15    17 ar  
    27    16    29 1   
    28    16    30 1   
    29    16    31 1   
    30    17    18 ar  
    31    17    32 1   
    32    18    19 1   
    33    18    20 ar  
    34    19    33 1   
    35    19    34 1   
    36    19    35 1   
    37    20    36 1   
@<TRIPOS>SUBSTRUCTURE
     1 JTE         1 TEMP              0 ****  ****    0 ROOT
