@<TRIPOS>MOLECULE
JTF
   37    38     1     0     0
SMALL
No Charge or Current Charge


@<TRIPOS>ATOM
      1 C01          5.4590    -0.1760    -1.1520 c3         1 JTF       0.149600
      2 N01          5.0580     0.4710     0.1210 n3         1 JTF      -0.714600
      3 C02          5.8970     1.6520     0.4280 c3         1 JTF       0.149600
      4 C03          3.6020     0.7820     0.2020 c3         1 JTF       0.158800
      5 C04          2.6440    -0.4440     0.1150 c3         1 JTF       0.186800
      6 N02          1.2230    -0.0640     0.3000 nu         1 JTF      -0.932200
      7 C05          0.0990    -0.9120     0.2080 ca         1 JTF       0.233000
      8 C06          0.2730    -2.3110     0.2190 ca         1 JTF      -0.130000
      9 C07         -0.8350    -3.1720     0.1470 ca         1 JTF      -0.114000
     10 C08         -2.1330    -2.6450     0.0650 ca         1 JTF      -0.087000
     11 C09         -2.3320    -1.2540     0.0470 ca         1 JTF      -0.103800
     12 C10         -3.6930    -0.7180    -0.0410 cc         1 JTF      -0.099200
     13 C11         -3.8640     0.6590    -0.0700 cd         1 JTF      -0.176400
     14 C12         -5.2290     1.3080    -0.1600 c3         1 JTF      -0.037900
     15 C13         -2.7050     1.6040    -0.0200 c          1 JTF       0.557200
     16 O1          -2.8000     2.8230    -0.0540 o          1 JTF      -0.560000
     17 N1          -1.4830     0.9950     0.0670 ns         1 JTF      -0.369100
     18 C1          -1.2210    -0.3900     0.1130 ca         1 JTF       0.064600
     19 H011         6.5370    -0.3890    -1.1550 h1         1 JTF       0.032367
     20 H012         4.9360    -1.1300    -1.2950 h1         1 JTF       0.032367
     21 H013         5.2360     0.4740    -2.0090 h1         1 JTF       0.032367
     22 H021         5.7550     2.4400    -0.3230 h1         1 JTF       0.032367
     23 H022         5.6420     2.0650     1.4130 h1         1 JTF       0.032367
     24 H023         6.9610     1.3790     0.4430 h1         1 JTF       0.032367
     25 H031         3.3990     1.2860     1.1570 h1         1 JTF       0.037700
     26 H032         3.3310     1.4890    -0.5950 h1         1 JTF       0.037700
     27 H041         2.7650    -0.9250    -0.8650 h1         1 JTF       0.046700
     28 H042         2.9380    -1.1700     0.8850 h1         1 JTF       0.046700
     29 H02          1.0430     0.9160     0.5120 hn         1 JTF       0.445000
     30 H06          1.2660    -2.7430     0.2910 ha         1 JTF       0.119000
     31 H07         -0.6870    -4.2500     0.1600 ha         1 JTF       0.117000
     32 H08         -2.9840    -3.3220     0.0130 ha         1 JTF       0.118000
     33 H10         -4.5570    -1.3780    -0.0820 ha         1 JTF       0.186000
     34 H121        -5.4150     1.9590     0.7030 hc         1 JTF       0.049033
     35 H122        -5.3170     1.9190    -1.0670 hc         1 JTF       0.049033
     36 H123        -6.0320     0.5620    -0.1870 hc         1 JTF       0.049033
     37 H1          -0.6890     1.6170     0.0620 hn         1 JTF       0.331500
@<TRIPOS>BOND
     1     1     2 1   
     2     1    19 1   
     3     1    20 1   
     4     1    21 1   
     5     2     3 1   
     6     2     4 1   
     7     3    22 1   
     8     3    23 1   
     9     3    24 1   
    10     4     5 1   
    11     4    25 1   
    12     4    26 1   
    13     5     6 1   
    14     5    27 1   
    15     5    28 1   
    16     6     7 1   
    17     6    29 1   
    18     7     8 ar  
    19     7    18 ar  
    20     8     9 ar  
    21     8    30 1   
    22     9    10 ar  
    23     9    31 1   
    24    10    11 ar  
    25    10    32 1   
    26    11    12 1   
    27    11    18 ar  
    28    12    13 2   
    29    12    33 1   
    30    13    14 1   
    31    13    15 1   
    32    14    34 1   
    33    14    35 1   
    34    14    36 1   
    35    15    16 2   
    36    15    17 1   
    37    17    18 1   
    38    17    37 1   
@<TRIPOS>SUBSTRUCTURE
     1 JTF         1 TEMP              0 ****  ****    0 ROOT
