@<TRIPOS>MOLECULE
JTF
   37    38     1     0     0
SMALL
bcc


@<TRIPOS>ATOM
      1 C01          5.4010    -0.1530    -1.0740 c3         1 JTF       0.149600
      2 N01          4.8930     0.3940     0.1680 n3         1 JTF      -0.714600
      3 C02          5.7320     1.4830     0.6200 c3         1 JTF       0.149600
      4 C03          3.5060     0.8030     0.0720 c3         1 JTF       0.158800
      5 C04          2.5550    -0.3840     0.0350 c3         1 JTF       0.186800
      6 N02          1.1880     0.0890    -0.0280 nu         1 JTF      -0.738600
      7 C05          0.1510    -0.8360     0.0290 ca         1 JTF       0.094600
      8 C06          0.3420    -2.2060     0.1190 ca         1 JTF      -0.148000
      9 C07         -0.7410    -3.0900     0.1900 ca         1 JTF      -0.132000
     10 C08         -2.0310    -2.6190     0.1510 ca         1 JTF      -0.105000
     11 C09         -2.2620    -1.2370     0.0770 ca         1 JTF      -0.103800
     12 C10         -3.5780    -0.6710     0.0450 cc         1 JTF      -0.049200
     13 C11         -3.8000     0.6600    -0.0010 cd         1 JTF      -0.176400
     14 C12         -5.1650     1.2640    -0.0430 c3         1 JTF      -0.037900
     15 C13         -2.6660     1.5810     0.0150 c          1 JTF       0.699700
     16 O1          -2.7830     2.8020     0.0230 o          1 JTF      -0.635500
     17 N1          -1.4310     0.9940     0.0310 ns         1 JTF      -0.436100
     18 C1          -1.1790    -0.3570     0.0450 ca         1 JTF       0.064600
     19 H011         6.4340    -0.4750    -0.9400 h1         1 JTF       0.032367
     20 H012         4.8290    -1.0270    -1.3840 h1         1 JTF       0.032367
     21 H013         5.3810     0.5740    -1.9020 h1         1 JTF       0.032367
     22 H021         5.7640     2.3310    -0.0820 h1         1 JTF       0.032367
     23 H022         5.3770     1.8590     1.5810 h1         1 JTF       0.032367
     24 H023         6.7550     1.1310     0.7570 h1         1 JTF       0.032367
     25 H031         3.2620     1.4000     0.9540 h1         1 JTF       0.037700
     26 H032         3.3310     1.4540    -0.8040 h1         1 JTF       0.037700
     27 H041         2.7900    -1.0550    -0.8020 h1         1 JTF       0.046700
     28 H042         2.6840    -0.9640     0.9510 h1         1 JTF       0.046700
     29 H02          1.0650     0.7680    -0.7690 hn         1 JTF       0.389800
     30 H06          1.3450    -2.6100     0.1210 ha         1 JTF       0.137000
     31 H07         -0.5500    -4.1530     0.2560 ha         1 JTF       0.135000
     32 H08         -2.8730    -3.2980     0.1820 ha         1 JTF       0.136000
     33 H10         -4.4200    -1.3550     0.0560 ha         1 JTF       0.136000
     34 H121        -5.3360     1.9220     0.8100 hc         1 JTF       0.049033
     35 H122        -5.3010     1.8700    -0.9410 hc         1 JTF       0.049033
     36 H123        -5.9330     0.4930    -0.0360 hc         1 JTF       0.049033
     37 H1          -0.6470     1.6270     0.1130 hn         1 JTF       0.331500
@<TRIPOS>BOND
     1     1     2 1   
     2     1    19 1   
     3     1    20 1   
     4     1    21 1   
     5     2     3 1   
     6     2     4 1   
     7     3    22 1   
     8     3    23 1   
     9     3    24 1   
    10     4     5 1   
    11     4    25 1   
    12     4    26 1   
    13     5     6 1   
    14     5    27 1   
    15     5    28 1   
    16     6     7 1   
    17     6    29 1   
    18     7     8 ar  
    19     7    18 ar  
    20     8     9 ar  
    21     8    30 1   
    22     9    10 ar  
    23     9    31 1   
    24    10    11 ar  
    25    10    32 1   
    26    11    12 1   
    27    11    18 ar  
    28    12    13 2   
    29    12    33 1   
    30    13    14 1   
    31    13    15 1   
    32    14    34 1   
    33    14    35 1   
    34    14    36 1   
    35    15    16 2   
    36    15    17 1   
    37    17    18 1   
    38    17    37 1   
@<TRIPOS>SUBSTRUCTURE
     1 JTF         1 TEMP              0 ****  ****    0 ROOT
