@<TRIPOS>MOLECULE
JTG
  166   166     1     0     0
SMALL
bcc


@<TRIPOS>ATOM
      1 C6           5.4950     5.8210     0.9590 c6         1 JTG       0.092100
      2 C5           4.9240     4.8620     1.9980 c6         1 JTG       0.138100
      3 C4           3.4060     4.7930     1.8430 c6         1 JTG       0.122100
      4 C3           3.0770     4.4030     0.4050 c6         1 JTG       0.142100
      5 C1           5.0560     5.3940    -0.4460 c6         1 JTG       0.313900
      6 CBT         19.4610   -12.3580     1.8850 c3         1 JTG      -0.088100
      7 CBS         19.2010   -10.8770     1.6430 c3         1 JTG      -0.075400
      8 CBR         17.7320   -10.5670     1.3860 c3         1 JTG      -0.075400
      9 CBQ         17.4600    -9.0870     1.1480 c3         1 JTG      -0.074400
     10 CBP         15.9890    -8.7770     0.8960 c3         1 JTG      -0.074400
     11 CBO         15.7180    -7.2960     0.6620 c3         1 JTG      -0.074400
     12 CBN         14.2470    -6.9830     0.4160 c3         1 JTG      -0.074400
     13 CBM         13.9780    -5.5020     0.1860 c3         1 JTG      -0.074400
     14 CBL         12.5080    -5.1830    -0.0520 c3         1 JTG      -0.074400
     15 CBK         12.2450    -3.6990    -0.2770 c3         1 JTG      -0.074400
     16 CBJ         10.7730    -3.3700    -0.4980 c3         1 JTG      -0.074400
     17 CBI         10.5210    -1.8840    -0.7210 c3         1 JTG      -0.076400
     18 CBG          8.8340    -0.0460    -1.1260 c3         1 JTG      -0.107400
     19 CAQ          7.3700     0.3440    -1.3100 c3         1 JTG       0.114100
     20 OAR          6.5840    -0.0970    -0.2140 oh         1 JTG      -0.600800
     21 CAP          7.1890     1.8660    -1.4970 c3         1 JTG       0.104100
     22 OAS          8.2180     2.4530    -2.2590 oh         1 JTG      -0.580800
     23 CAN          5.8370     2.2600    -2.1270 c3         1 JTG       0.093700
     24 O1           5.6700     4.1840    -0.7370 os         1 JTG      -0.435600
     25 O5           6.8940     5.8380     1.0980 oh         1 JTG      -0.591800
     26 O3           5.2360     5.2650     3.3070 oh         1 JTG      -0.598800
     27 O2           3.6590     5.3150    -0.5130 os         1 JTG      -0.400600
     28 C2           1.5870     4.3660     0.1470 c3         1 JTG       0.144400
     29 O6           1.3710     3.8300    -1.1370 oh         1 JTG      -0.586800
     30 O4           2.8060     6.0350     2.1350 os         1 JTG      -0.400600
     31 CAT          2.1930     6.1240     3.4040 c3         1 JTG       0.169600
     32 CAU          1.7020     7.5210     3.5910 c2         1 JTG      -0.162200
     33 CAX          0.4450     7.8360     3.8730 c2         1 JTG      -0.210000
     34 NAO          4.7210     1.5720    -1.5180 ns         1 JTG      -0.570900
     35 CBE          3.5740     1.3090    -2.1700 c          1 JTG       0.676100
     36 OBF          3.4090     1.5860    -3.3500 o          1 JTG      -0.611100
     37 CBU          2.5080     0.6430    -1.3230 c3         1 JTG      -0.149400
     38 CBV          1.1820     0.4550    -2.0400 c3         1 JTG      -0.064400
     39 CBW          0.0570     0.0780    -1.0850 c3         1 JTG      -0.076400
     40 CBX         -1.2800    -0.1050    -1.7940 c3         1 JTG      -0.075400
     41 CBY         -2.4570    -0.2640    -0.8410 c3         1 JTG      -0.073400
     42 CBZ         -3.7920    -0.4280    -1.5580 c3         1 JTG      -0.074400
     43 CCA         -4.9820    -0.4890    -0.6090 c3         1 JTG      -0.074400
     44 CCB         -6.3180    -0.6390    -1.3250 c3         1 JTG      -0.074400
     45 CCC         -7.5100    -0.6650    -0.3750 c3         1 JTG      -0.074400
     46 CCD         -8.8480    -0.8060    -1.0900 c3         1 JTG      -0.074400
     47 CCE        -10.0390    -0.8200    -0.1400 c3         1 JTG      -0.074400
     48 CCF        -11.3780    -0.9550    -0.8540 c3         1 JTG      -0.074400
     49 CCG        -12.5680    -0.9640     0.0970 c3         1 JTG      -0.074400
     50 CCH        -13.9080    -1.0940    -0.6160 c3         1 JTG      -0.074400
     51 CCI        -15.0980    -1.1020     0.3360 c3         1 JTG      -0.074400
     52 CCJ        -16.4390    -1.2290    -0.3780 c3         1 JTG      -0.074400
     53 CCK        -17.6290    -1.2360     0.5740 c3         1 JTG      -0.074400
     54 CCL        -18.9700    -1.3590    -0.1390 c3         1 JTG      -0.074400
     55 CCM        -20.1590    -1.3660     0.8130 c3         1 JTG      -0.074400
     56 CCN        -21.5010    -1.4840     0.1000 c3         1 JTG      -0.074400
     57 CCO        -22.6900    -1.4910     1.0520 c3         1 JTG      -0.074400
     58 CCP        -24.0320    -1.6020     0.3390 c3         1 JTG      -0.074400
     59 CCQ        -25.2200    -1.6090     1.2930 c3         1 JTG      -0.076400
     60 CCR        -26.5650    -1.7120     0.5830 c3         1 JTG      -0.075400
     61 CCS        -27.7420    -1.7170     1.5490 c3         1 JTG      -0.088100
     62 H1           5.0710     6.8160     1.1440 h1         1 JTG       0.071700
     63 H2           5.3160     3.8530     1.8020 h1         1 JTG       0.052700
     64 H3           3.0150     4.0050     2.5020 h1         1 JTG       0.052700
     65 H4           3.4730     3.3930     0.2360 h1         1 JTG       0.058700
     66 H5           5.3330     6.1630    -1.1810 h2         1 JTG       0.069700
     67 H6          19.1620   -12.9570     1.0230 hc         1 JTG       0.031367
     68 H7          20.5170   -12.5550     2.0750 hc         1 JTG       0.031367
     69 H8          18.8970   -12.7200     2.7470 hc         1 JTG       0.031367
     70 H9          19.5460   -10.2980     2.5060 hc         1 JTG       0.036700
     71 H10         19.7980   -10.5340     0.7920 hc         1 JTG       0.036700
     72 H11         17.3860   -11.1450     0.5220 hc         1 JTG       0.036700
     73 H12         17.1350   -10.9130     2.2370 hc         1 JTG       0.036700
     74 H13         17.8090    -8.5100     2.0110 hc         1 JTG       0.036700
     75 H14         18.0550    -8.7420     0.2950 hc         1 JTG       0.036700
     76 H15         15.6400    -9.3520     0.0310 hc         1 JTG       0.037200
     77 H16         15.3950    -9.1240     1.7480 hc         1 JTG       0.037200
     78 H17         16.0700    -6.7220     1.5260 hc         1 JTG       0.036700
     79 H18         16.3110    -6.9500    -0.1920 hc         1 JTG       0.036700
     80 H19         13.8950    -7.5560    -0.4490 hc         1 JTG       0.037200
     81 H20         13.6550    -7.3310     1.2690 hc         1 JTG       0.037200
     82 H21         14.3360    -4.9300     1.0500 hc         1 JTG       0.037200
     83 H22         14.5680    -5.1540    -0.6700 hc         1 JTG       0.037200
     84 H23         12.1480    -5.7520    -0.9160 hc         1 JTG       0.037200
     85 H24         11.9180    -5.5300     0.8040 hc         1 JTG       0.037200
     86 H25         12.6140    -3.1310     0.5840 hc         1 JTG       0.037200
     87 H26         12.8270    -3.3550    -1.1390 hc         1 JTG       0.037200
     88 H27         10.3990    -3.9370    -1.3580 hc         1 JTG       0.038200
     89 H28         10.1910    -3.7110     0.3650 hc         1 JTG       0.038200
     90 H29         10.9180    -1.3190     0.1300 hc         1 JTG       0.037200
     91 H30         11.0880    -1.5480    -1.5960 hc         1 JTG       0.037200
     92 H31          8.6480    -2.0960    -1.7600 hc         1 JTG       0.043700
     93 H32          8.4890    -1.8790    -0.0290 hc         1 JTG       0.043700
     94 H33          9.2530     0.5160    -0.2810 hc         1 JTG       0.051200
     95 H34          9.4050     0.2630    -2.0040 hc         1 JTG       0.051200
     96 H35          6.9730    -0.1840    -2.1860 h1         1 JTG       0.076700
     97 H36          7.0120     0.1990     0.5970 ho         1 JTG       0.403000
     98 H37          7.2770     2.3160    -0.5030 h1         1 JTG       0.091700
     99 H38          8.1730     2.1100    -3.1590 ho         1 JTG       0.400000
    100 H39          5.8750     1.9670    -3.1820 h1         1 JTG       0.070700
    101 H40          6.3830     4.2850    -2.6780 h1         1 JTG       0.054200
    102 H41          4.6460     3.9920    -2.5340 h1         1 JTG       0.054200
    103 H42          7.2330     6.6550     0.7220 ho         1 JTG       0.411000
    104 H43          6.1910     5.3770     3.3620 ho         1 JTG       0.423000
    105 H44          1.1270     3.7450     0.9270 h1         1 JTG       0.032200
    106 H45          1.1660     5.3730     0.2440 h1         1 JTG       0.032200
    107 H46          0.4220     3.7620    -1.2760 ho         1 JTG       0.405000
    108 H47          1.3590     5.4150     3.4880 h1         1 JTG       0.033200
    109 H48          2.9070     5.8810     4.2000 h1         1 JTG       0.033200
    110 H49          2.4500     8.3050     3.5110 ha         1 JTG       0.129000
    111 H51          0.1380     8.8610     4.0330 ha         1 JTG       0.112000
    112 H52         -0.3280     7.0800     3.9580 ha         1 JTG       0.112000
    113 H54          4.8160     1.2660    -0.5640 hn         1 JTG       0.326500
    114 H55          2.8910    -0.3170    -0.9620 hc         1 JTG       0.054700
    115 H56          2.3560     1.2570    -0.4300 hc         1 JTG       0.054700
    116 H57          0.9090     1.3830    -2.5460 hc         1 JTG       0.056200
    117 H58          1.2790    -0.3050    -2.8200 hc         1 JTG       0.056200
    118 H59          0.3120    -0.8370    -0.5400 hc         1 JTG       0.032200
    119 H60         -0.0420     0.8650    -0.3280 hc         1 JTG       0.032200
    120 H61         -1.4610     0.7610    -2.4410 hc         1 JTG       0.040200
    121 H62         -1.2240    -0.9710    -2.4620 hc         1 JTG       0.040200
    122 H63         -2.2890    -1.1250    -0.1840 hc         1 JTG       0.035700
    123 H64         -2.5050     0.6120    -0.1840 hc         1 JTG       0.035700
    124 H65         -3.9310     0.4060    -2.2550 hc         1 JTG       0.038200
    125 H66         -3.7680    -1.3340    -2.1740 hc         1 JTG       0.038200
    126 H67         -4.8480    -1.3220     0.0910 hc         1 JTG       0.036200
    127 H68         -5.0000     0.4200     0.0040 hc         1 JTG       0.036200
    128 H69         -6.4420     0.1840    -2.0370 hc         1 JTG       0.037700
    129 H70         -6.3100    -1.5570    -1.9240 hc         1 JTG       0.037700
    130 H71         -7.3890    -1.4900     0.3360 hc         1 JTG       0.036700
    131 H72         -7.5130     0.2520     0.2240 hc         1 JTG       0.036700
    132 H73         -8.9650     0.0160    -1.8050 hc         1 JTG       0.037700
    133 H74         -8.8470    -1.7270    -1.6850 hc         1 JTG       0.037700
    134 H75         -9.9230    -1.6430     0.5740 hc         1 JTG       0.036700
    135 H76        -10.0360     0.0990     0.4570 hc         1 JTG       0.036700
    136 H77        -11.4920    -0.1320    -1.5680 hc         1 JTG       0.037700
    137 H78        -11.3820    -1.8750    -1.4490 hc         1 JTG       0.037700
    138 H79        -12.4550    -1.7880     0.8110 hc         1 JTG       0.036700
    139 H80        -12.5620    -0.0450     0.6940 hc         1 JTG       0.036700
    140 H81        -14.0210    -0.2710    -1.3300 hc         1 JTG       0.037700
    141 H82        -13.9150    -2.0140    -1.2130 hc         1 JTG       0.037700
    142 H83        -14.9870    -1.9270     1.0480 hc         1 JTG       0.036700
    143 H84        -15.0900    -0.1840     0.9330 hc         1 JTG       0.036700
    144 H85        -16.5500    -0.4040    -1.0900 hc         1 JTG       0.037200
    145 H86        -16.4470    -2.1470    -0.9760 hc         1 JTG       0.037200
    146 H87        -17.5180    -2.0630     1.2850 hc         1 JTG       0.036700
    147 H88        -17.6190    -0.3190     1.1740 hc         1 JTG       0.036700
    148 H89        -19.0800    -0.5320    -0.8500 hc         1 JTG       0.037200
    149 H90        -18.9800    -2.2760    -0.7390 hc         1 JTG       0.037200
    150 H91        -20.0510    -2.1940     1.5220 hc         1 JTG       0.036700
    151 H92        -20.1470    -0.4500     1.4140 hc         1 JTG       0.036700
    152 H93        -21.6090    -0.6550    -0.6090 hc         1 JTG       0.036700
    153 H94        -21.5130    -2.3990    -0.5030 hc         1 JTG       0.036700
    154 H95        -22.5830    -2.3220     1.7580 hc         1 JTG       0.036700
    155 H96        -22.6750    -0.5770     1.6570 hc         1 JTG       0.036700
    156 H97        -24.1390    -0.7700    -0.3660 hc         1 JTG       0.036700
    157 H98        -24.0480    -2.5150    -0.2660 hc         1 JTG       0.036700
    158 H99        -25.1160    -2.4440     1.9960 hc         1 JTG       0.036700
    159 H100       -25.2020    -0.6980     1.9030 hc         1 JTG       0.036700
    160 H101       -26.6680    -0.8770    -0.1170 hc         1 JTG       0.036700
    161 H102       -26.5850    -2.6220    -0.0250 hc         1 JTG       0.036700
    162 H103       -27.6820    -2.5630     2.2360 hc         1 JTG       0.031367
    163 H104       -27.7600    -0.8060     2.1500 hc         1 JTG       0.031367
    164 H105       -28.6950    -1.7850     1.0240 hc         1 JTG       0.031367
    165 CAM          5.6180     3.7690    -2.0860 c3         1 JTG       0.121400
    166 CBH          9.0480    -1.5390    -0.9050 c3         1 JTG      -0.073400
@<TRIPOS>BOND
     1     1     2 1   
     2     1     5 1   
     3     1    25 1   
     4     1    62 1   
     5     2     3 1   
     6     2    26 1   
     7     2    63 1   
     8     3     4 1   
     9     3    30 1   
    10     3    64 1   
    11     4    27 1   
    12     4    28 1   
    13     4    65 1   
    14     5    24 1   
    15     5    27 1   
    16     5    66 1   
    17     6     7 1   
    18     6    67 1   
    19     6    68 1   
    20     6    69 1   
    21     7     8 1   
    22     7    70 1   
    23     7    71 1   
    24     8     9 1   
    25     8    72 1   
    26     8    73 1   
    27     9    10 1   
    28     9    74 1   
    29     9    75 1   
    30    10    11 1   
    31    10    76 1   
    32    10    77 1   
    33    11    12 1   
    34    11    78 1   
    35    11    79 1   
    36    12    13 1   
    37    12    80 1   
    38    12    81 1   
    39    13    14 1   
    40    13    82 1   
    41    13    83 1   
    42    14    15 1   
    43    14    84 1   
    44    14    85 1   
    45    15    16 1   
    46    15    86 1   
    47    15    87 1   
    48    16    17 1   
    49    16    88 1   
    50    16    89 1   
    51    17    90 1   
    52    17    91 1   
    53    17   166 1   
    54    18    19 1   
    55    18    94 1   
    56    18    95 1   
    57    18   166 1   
    58    19    20 1   
    59    19    21 1   
    60    19    96 1   
    61    20    97 1   
    62    21    22 1   
    63    21    23 1   
    64    21    98 1   
    65    22    99 1   
    66    23    34 1   
    67    23   100 1   
    68    23   165 1   
    69    24   165 1   
    70    25   103 1   
    71    26   104 1   
    72    28    29 1   
    73    28   105 1   
    74    28   106 1   
    75    29   107 1   
    76    30    31 1   
    77    31    32 1   
    78    31   108 1   
    79    31   109 1   
    80    32    33 2   
    81    32   110 1   
    82    33   111 1   
    83    33   112 1   
    84    34    35 1   
    85    34   113 1   
    86    35    36 2   
    87    35    37 1   
    88    37    38 1   
    89    37   114 1   
    90    37   115 1   
    91    38    39 1   
    92    38   116 1   
    93    38   117 1   
    94    39    40 1   
    95    39   118 1   
    96    39   119 1   
    97    40    41 1   
    98    40   120 1   
    99    40   121 1   
   100    41    42 1   
   101    41   122 1   
   102    41   123 1   
   103    42    43 1   
   104    42   124 1   
   105    42   125 1   
   106    43    44 1   
   107    43   126 1   
   108    43   127 1   
   109    44    45 1   
   110    44   128 1   
   111    44   129 1   
   112    45    46 1   
   113    45   130 1   
   114    45   131 1   
   115    46    47 1   
   116    46   132 1   
   117    46   133 1   
   118    47    48 1   
   119    47   134 1   
   120    47   135 1   
   121    48    49 1   
   122    48   136 1   
   123    48   137 1   
   124    49    50 1   
   125    49   138 1   
   126    49   139 1   
   127    50    51 1   
   128    50   140 1   
   129    50   141 1   
   130    51    52 1   
   131    51   142 1   
   132    51   143 1   
   133    52    53 1   
   134    52   144 1   
   135    52   145 1   
   136    53    54 1   
   137    53   146 1   
   138    53   147 1   
   139    54    55 1   
   140    54   148 1   
   141    54   149 1   
   142    55    56 1   
   143    55   150 1   
   144    55   151 1   
   145    56    57 1   
   146    56   152 1   
   147    56   153 1   
   148    57    58 1   
   149    57   154 1   
   150    57   155 1   
   151    58    59 1   
   152    58   156 1   
   153    58   157 1   
   154    59    60 1   
   155    59   158 1   
   156    59   159 1   
   157    60    61 1   
   158    60   160 1   
   159    60   161 1   
   160    61   162 1   
   161    61   163 1   
   162    61   164 1   
   163    92   166 1   
   164    93   166 1   
   165   101   165 1   
   166   102   165 1   
@<TRIPOS>SUBSTRUCTURE
     1 JTG         1 TEMP              0 ****  ****    0 ROOT
