@<TRIPOS>MOLECULE
JTG
  166   166     1     0     0
SMALL
No Charge or Current Charge


@<TRIPOS>ATOM
      1 C6           4.3480     4.9740     1.3320 c6         1 JTG       0.115300
      2 C5           3.0640     4.1150     1.5270 c6         1 JTG       0.161300
      3 C4           1.9110     4.6400     0.6020 c6         1 JTG       0.145300
      4 C3           2.4320     4.6060    -0.8690 c6         1 JTG       0.165300
      5 C1           4.7520     4.9750    -0.1810 c6         1 JTG       0.360300
      6 CBT         20.3700   -12.4030     1.5110 c3         1 JTG      -0.088100
      7 CBS         19.9170   -10.9530     1.7700 c3         1 JTG      -0.075400
      8 CBR         18.4880   -10.6660     1.2620 c3         1 JTG      -0.075400
      9 CBQ         18.0340    -9.2120     1.5170 c3         1 JTG      -0.074400
     10 CBP         16.6100    -8.9230     0.9940 c3         1 JTG      -0.074400
     11 CBO         16.1620    -7.4650     1.2340 c3         1 JTG      -0.074400
     12 CBN         14.7470    -7.1730     0.6880 c3         1 JTG      -0.074400
     13 CBM         14.3050    -5.7090     0.9020 c3         1 JTG      -0.074400
     14 CBL         12.9080    -5.4100     0.3160 c3         1 JTG      -0.074400
     15 CBK         12.4790    -3.9370     0.4940 c3         1 JTG      -0.074400
     16 CBJ         11.1000    -3.6300    -0.1310 c3         1 JTG      -0.074400
     17 CBI         10.6850    -2.1490     0.0090 c3         1 JTG      -0.076400
     18 CBG          8.9240    -0.3440    -0.5360 c3         1 JTG      -0.107400
     19 CAQ          7.6200     0.0370    -1.2940 c3         1 JTG       0.137300
     20 OAR          6.5390    -0.7160    -0.7140 oh         1 JTG      -0.663000
     21 CAP          7.2960     1.5780    -1.2550 c3         1 JTG       0.127300
     22 OAS          8.4570     2.3420    -1.6530 oh         1 JTG      -0.643000
     23 CAN          6.0860     2.0330    -2.1460 c3         1 JTG       0.093700
     24 O1           5.1890     3.6600    -0.5750 os         1 JTG      -0.482000
     25 O5           5.4100     4.4550     2.1720 oh         1 JTG      -0.714000
     26 O3           2.7270     4.0700     2.9260 oh         1 JTG      -0.721000
     27 O2           3.6440     5.3990    -1.0070 os         1 JTG      -0.447000
     28 C2           1.3660     5.1220    -1.8910 c3         1 JTG       0.167600
     29 O6           1.8140     5.0740    -3.2600 oh         1 JTG      -0.709000
     30 O4           1.4280     5.9750     0.9320 os         1 JTG      -0.447000
     31 CAT          0.6720     6.1510     2.1400 c3         1 JTG       0.192800
     32 CAU         -0.0020     7.5020     2.0490 c2         1 JTG      -0.212200
     33 CAX         -1.2890     7.7160     1.7280 c2         1 JTG      -0.310000
     34 NAO          4.9030     1.1720    -1.9930 ns         1 JTG      -0.503900
     35 CBE          3.8410     1.1200    -2.8620 c          1 JTG       0.609100
     36 OBF          3.8110     1.7690    -3.8980 o          1 JTG      -0.611100
     37 CBU          2.7210     0.1520    -2.4640 c3         1 JTG      -0.149400
     38 CBV          1.4560     0.9110    -1.9950 c3         1 JTG      -0.064400
     39 CBW          0.2580    -0.0210    -1.7160 c3         1 JTG      -0.076400
     40 CBX         -1.0290     0.7440    -1.3350 c3         1 JTG      -0.075400
     41 CBY         -2.2340    -0.1910    -1.0930 c3         1 JTG      -0.073400
     42 CBZ         -3.5480     0.5700    -0.8080 c3         1 JTG      -0.074400
     43 CCA         -4.7560    -0.3720    -0.6070 c3         1 JTG      -0.074400
     44 CCB         -6.0890     0.3820    -0.4040 c3         1 JTG      -0.074400
     45 CCC         -7.2960    -0.5660    -0.2220 c3         1 JTG      -0.074400
     46 CCD         -8.6420     0.1820    -0.0930 c3         1 JTG      -0.074400
     47 CCE         -9.8470    -0.7690     0.0840 c3         1 JTG      -0.074400
     48 CCF        -11.2010    -0.0280     0.1460 c3         1 JTG      -0.074400
     49 CCG        -12.4030    -0.9820     0.3240 c3         1 JTG      -0.074400
     50 CCH        -13.7630    -0.2500     0.3250 c3         1 JTG      -0.074400
     51 CCI        -14.9640    -1.2030     0.5150 c3         1 JTG      -0.074400
     52 CCJ        -16.3260    -0.4760     0.4650 c3         1 JTG      -0.074400
     53 CCK        -17.5290    -1.4230     0.6690 c3         1 JTG      -0.074400
     54 CCL        -18.8900    -0.6980     0.5790 c3         1 JTG      -0.074400
     55 CCM        -20.0960    -1.6370     0.7980 c3         1 JTG      -0.074400
     56 CCN        -21.4540    -0.9110     0.6820 c3         1 JTG      -0.074400
     57 CCO        -22.6640    -1.8420     0.9150 c3         1 JTG      -0.074400
     58 CCP        -24.0190    -1.1130     0.7820 c3         1 JTG      -0.074400
     59 CCQ        -25.2320    -2.0380     1.0230 c3         1 JTG      -0.076400
     60 CCR        -26.5840    -1.3070     0.8830 c3         1 JTG      -0.075400
     61 CCS        -27.7960    -2.2280     1.1250 c3         1 JTG      -0.088100
     62 H1           4.1180     6.0120     1.6160 h1         1 JTG       0.071700
     63 H2           3.2980     3.0930     1.1940 h1         1 JTG       0.052700
     64 H3           1.0630     3.9430     0.6740 h1         1 JTG       0.052700
     65 H4           2.6650     3.5670    -1.1380 h1         1 JTG       0.058700
     66 H5           5.5860     5.6810    -0.3170 h2         1 JTG       0.069700
     67 H6          20.3620   -12.6260     0.4370 hc         1 JTG       0.031367
     68 H7          21.3890   -12.5590     1.8860 hc         1 JTG       0.031367
     69 H8          19.7060   -13.1140     2.0180 hc         1 JTG       0.031367
     70 H9          19.9680   -10.7520     2.8470 hc         1 JTG       0.036700
     71 H10         20.6220   -10.2680     1.2820 hc         1 JTG       0.036700
     72 H11         18.4410   -10.8740     0.1850 hc         1 JTG       0.036700
     73 H12         17.7860   -11.3540     1.7510 hc         1 JTG       0.036700
     74 H13         18.0720    -9.0060     2.5940 hc         1 JTG       0.036700
     75 H14         18.7410    -8.5250     1.0340 hc         1 JTG       0.036700
     76 H15         16.5720    -9.1380    -0.0810 hc         1 JTG       0.037200
     77 H16         15.9010    -9.6040     1.4820 hc         1 JTG       0.037200
     78 H17         16.1850    -7.2520     2.3100 hc         1 JTG       0.036700
     79 H18         16.8790    -6.7860     0.7570 hc         1 JTG       0.036700
     80 H19         14.7230    -7.4020    -0.3850 hc         1 JTG       0.037200
     81 H20         14.0260    -7.8420     1.1750 hc         1 JTG       0.037200
     82 H21         14.3030    -5.4850     1.9760 hc         1 JTG       0.037200
     83 H22         15.0400    -5.0400     0.4360 hc         1 JTG       0.037200
     84 H23         12.9080    -5.6560    -0.7530 hc         1 JTG       0.037200
     85 H24         12.1670    -6.0630     0.7950 hc         1 JTG       0.037200
     86 H25         12.4540    -3.6940     1.5640 hc         1 JTG       0.037200
     87 H26         13.2340    -3.2860     0.0360 hc         1 JTG       0.037200
     88 H27         11.1240    -3.8950    -1.1960 hc         1 JTG       0.038200
     89 H28         10.3400    -4.2650     0.3410 hc         1 JTG       0.038200
     90 H29         10.6400    -1.8850     1.0740 hc         1 JTG       0.037200
     91 H30         11.4580    -1.5160    -0.4450 hc         1 JTG       0.037200
     92 H31          9.3690    -2.1150    -1.7120 hc         1 JTG       0.043700
     93 H32          8.5550    -2.4660    -0.1860 hc         1 JTG       0.043700
     94 H33          8.8190    -0.0770     0.5240 hc         1 JTG       0.051200
     95 H34          9.7570     0.2530    -0.9250 hc         1 JTG       0.051200
     96 H35          7.7460    -0.2480    -2.3490 h1         1 JTG       0.076700
     97 H36          6.8080    -1.6600    -0.7260 ho         1 JTG       0.442000
     98 H37          7.0440     1.8190    -0.2130 h1         1 JTG       0.091700
     99 H38          8.7420     2.0180    -2.5350 ho         1 JTG       0.439000
    100 H39          6.4060     1.9410    -3.1930 h1         1 JTG       0.070700
    101 H40          6.6000     4.1600    -2.0490 h1         1 JTG       0.054200
    102 H41          4.9680     3.8330    -2.6550 h1         1 JTG       0.054200
    103 H42          5.8710     3.7700     1.6300 ho         1 JTG       0.510000
    104 H43          3.6030     4.1140     3.3830 ho         1 JTG       0.522000
    105 H44          0.4600     4.5120    -1.7730 h1         1 JTG       0.032200
    106 H45          1.0990     6.1540    -1.6240 h1         1 JTG       0.032200
    107 H46          1.1210     5.5120    -3.8060 ho         1 JTG       0.504000
    108 H47         -0.0850     5.3620     2.2480 h1         1 JTG       0.033200
    109 H48          1.3210     6.1350     3.0240 h1         1 JTG       0.033200
    110 H49          0.6630     8.3390     2.2720 ha         1 JTG       0.179000
    111 H51         -1.7060     8.7240     1.6820 ha         1 JTG       0.162000
    112 H52         -1.9680     6.8940     1.4990 ha         1 JTG       0.162000
    113 H54          4.8950     0.5230    -1.2130 hn         1 JTG       0.326500
    114 H55          2.4590    -0.4520    -3.3410 hc         1 JTG       0.054700
    115 H56          3.0570    -0.5020    -1.6500 hc         1 JTG       0.054700
    116 H57          1.6910     1.4760    -1.0840 hc         1 JTG       0.056200
    117 H58          1.1700     1.6430    -2.7620 hc         1 JTG       0.056200
    118 H59          0.0600    -0.6280    -2.6090 hc         1 JTG       0.032200
    119 H60          0.5200    -0.7160    -0.9090 hc         1 JTG       0.032200
    120 H61         -0.8440     1.3400    -0.4330 hc         1 JTG       0.040200
    121 H62         -1.2770     1.4490    -2.1390 hc         1 JTG       0.040200
    122 H63         -2.3760    -0.8270    -1.9760 hc         1 JTG       0.035700
    123 H64         -2.0100    -0.8580    -0.2510 hc         1 JTG       0.035700
    124 H65         -3.4210     1.1930     0.0860 hc         1 JTG       0.038200
    125 H66         -3.7580     1.2480    -1.6450 hc         1 JTG       0.038200
    126 H67         -4.8480    -1.0280    -1.4810 hc         1 JTG       0.036200
    127 H68         -4.5690    -1.0180     0.2600 hc         1 JTG       0.036200
    128 H69         -6.0070     1.0350     0.4740 hc         1 JTG       0.037700
    129 H70         -6.2690     1.0300    -1.2700 hc         1 JTG       0.037700
    130 H71         -7.3480    -1.2490    -1.0790 hc         1 JTG       0.036700
    131 H72         -7.1380    -1.1840     0.6710 hc         1 JTG       0.036700
    132 H73         -8.5940     0.8680     0.7620 hc         1 JTG       0.037700
    133 H74         -8.7970     0.7970    -0.9890 hc         1 JTG       0.037700
    134 H75         -9.8670    -1.4810    -0.7500 hc         1 JTG       0.036700
    135 H76         -9.7120    -1.3540     1.0020 hc         1 JTG       0.036700
    136 H77        -11.1840     0.6890     0.9760 hc         1 JTG       0.037700
    137 H78        -11.3350     0.5520    -0.7760 hc         1 JTG       0.037700
    138 H79        -12.3970    -1.7230    -0.4850 hc         1 JTG       0.036700
    139 H80        -12.2880    -1.5340     1.2650 hc         1 JTG       0.036700
    140 H81        -13.7690     0.5010     1.1260 hc         1 JTG       0.037700
    141 H82        -13.8800     0.2920    -0.6220 hc         1 JTG       0.037700
    142 H83        -14.9400    -1.9740    -0.2660 hc         1 JTG       0.036700
    143 H84        -14.8650    -1.7200     1.4780 hc         1 JTG       0.036700
    144 H85        -16.3470     0.3040     1.2360 hc         1 JTG       0.037200
    145 H86        -16.4260     0.0290    -0.5040 hc         1 JTG       0.037200
    146 H87        -17.4950    -2.2180    -0.0880 hc         1 JTG       0.036700
    147 H88        -17.4420    -1.9100     1.6480 hc         1 JTG       0.036700
    148 H89        -18.9200     0.1050     1.3260 hc         1 JTG       0.037200
    149 H90        -18.9780    -0.2220    -0.4060 hc         1 JTG       0.037200
    150 H91        -20.0590    -2.4500     0.0610 hc         1 JTG       0.036700
    151 H92        -20.0170    -2.1000     1.7900 hc         1 JTG       0.036700
    152 H93        -21.4870    -0.0900     1.4100 hc         1 JTG       0.036700
    153 H94        -21.5360    -0.4580    -0.3150 hc         1 JTG       0.036700
    154 H95        -22.6280    -2.6680     0.1940 hc         1 JTG       0.036700
    155 H96        -22.5890    -2.2860     1.9160 hc         1 JTG       0.036700
    156 H97        -24.0530    -0.2820     1.4990 hc         1 JTG       0.036700
    157 H98        -24.0950    -0.6750    -0.2210 hc         1 JTG       0.036700
    158 H99        -25.1970    -2.8720     0.3100 hc         1 JTG       0.036700
    159 H100       -25.1590    -2.4730     2.0280 hc         1 JTG       0.036700
    160 H101       -26.6230    -0.4730     1.5950 hc         1 JTG       0.036700
    161 H102       -26.6620    -0.8740    -0.1220 hc         1 JTG       0.036700
    162 H103       -27.8060    -3.0550     0.4050 hc         1 JTG       0.031367
    163 H104       -27.7670    -2.6490     2.1370 hc         1 JTG       0.031367
    164 H105       -28.7310    -1.6650     1.0140 hc         1 JTG       0.031367
    165 CAM          5.7150     3.5250    -1.9120 c3         1 JTG       0.144600
    166 CBH          9.3240    -1.8370    -0.6520 c3         1 JTG      -0.073400
@<TRIPOS>BOND
     1     1     2 1   
     2     1     5 1   
     3     1    25 1   
     4     1    62 1   
     5     2     3 1   
     6     2    26 1   
     7     2    63 1   
     8     3     4 1   
     9     3    30 1   
    10     3    64 1   
    11     4    27 1   
    12     4    28 1   
    13     4    65 1   
    14     5    24 1   
    15     5    27 1   
    16     5    66 1   
    17     6     7 1   
    18     6    67 1   
    19     6    68 1   
    20     6    69 1   
    21     7     8 1   
    22     7    70 1   
    23     7    71 1   
    24     8     9 1   
    25     8    72 1   
    26     8    73 1   
    27     9    10 1   
    28     9    74 1   
    29     9    75 1   
    30    10    11 1   
    31    10    76 1   
    32    10    77 1   
    33    11    12 1   
    34    11    78 1   
    35    11    79 1   
    36    12    13 1   
    37    12    80 1   
    38    12    81 1   
    39    13    14 1   
    40    13    82 1   
    41    13    83 1   
    42    14    15 1   
    43    14    84 1   
    44    14    85 1   
    45    15    16 1   
    46    15    86 1   
    47    15    87 1   
    48    16    17 1   
    49    16    88 1   
    50    16    89 1   
    51    17    90 1   
    52    17    91 1   
    53    17   166 1   
    54    18    19 1   
    55    18    94 1   
    56    18    95 1   
    57    18   166 1   
    58    19    20 1   
    59    19    21 1   
    60    19    96 1   
    61    20    97 1   
    62    21    22 1   
    63    21    23 1   
    64    21    98 1   
    65    22    99 1   
    66    23    34 1   
    67    23   100 1   
    68    23   165 1   
    69    24   165 1   
    70    25   103 1   
    71    26   104 1   
    72    28    29 1   
    73    28   105 1   
    74    28   106 1   
    75    29   107 1   
    76    30    31 1   
    77    31    32 1   
    78    31   108 1   
    79    31   109 1   
    80    32    33 2   
    81    32   110 1   
    82    33   111 1   
    83    33   112 1   
    84    34    35 1   
    85    34   113 1   
    86    35    36 2   
    87    35    37 1   
    88    37    38 1   
    89    37   114 1   
    90    37   115 1   
    91    38    39 1   
    92    38   116 1   
    93    38   117 1   
    94    39    40 1   
    95    39   118 1   
    96    39   119 1   
    97    40    41 1   
    98    40   120 1   
    99    40   121 1   
   100    41    42 1   
   101    41   122 1   
   102    41   123 1   
   103    42    43 1   
   104    42   124 1   
   105    42   125 1   
   106    43    44 1   
   107    43   126 1   
   108    43   127 1   
   109    44    45 1   
   110    44   128 1   
   111    44   129 1   
   112    45    46 1   
   113    45   130 1   
   114    45   131 1   
   115    46    47 1   
   116    46   132 1   
   117    46   133 1   
   118    47    48 1   
   119    47   134 1   
   120    47   135 1   
   121    48    49 1   
   122    48   136 1   
   123    48   137 1   
   124    49    50 1   
   125    49   138 1   
   126    49   139 1   
   127    50    51 1   
   128    50   140 1   
   129    50   141 1   
   130    51    52 1   
   131    51   142 1   
   132    51   143 1   
   133    52    53 1   
   134    52   144 1   
   135    52   145 1   
   136    53    54 1   
   137    53   146 1   
   138    53   147 1   
   139    54    55 1   
   140    54   148 1   
   141    54   149 1   
   142    55    56 1   
   143    55   150 1   
   144    55   151 1   
   145    56    57 1   
   146    56   152 1   
   147    56   153 1   
   148    57    58 1   
   149    57   154 1   
   150    57   155 1   
   151    58    59 1   
   152    58   156 1   
   153    58   157 1   
   154    59    60 1   
   155    59   158 1   
   156    59   159 1   
   157    60    61 1   
   158    60   160 1   
   159    60   161 1   
   160    61   162 1   
   161    61   163 1   
   162    61   164 1   
   163    92   166 1   
   164    93   166 1   
   165   101   165 1   
   166   102   165 1   
@<TRIPOS>SUBSTRUCTURE
     1 JTG         1 TEMP              0 ****  ****    0 ROOT
