@<TRIPOS>MOLECULE
JTH
   25    25     1     0     0
SMALL
abcg2


@<TRIPOS>ATOM
      1 C1           1.8340    -0.4730    -0.0090 c          1 JTH       0.480500
      2 O1           2.9200    -1.0910    -0.0080 o          1 JTH      -0.625100
      3 C2           0.6150    -1.2480    -0.0120 cc         1 JTH       0.047900
      4 O2           0.8370    -2.5650    -0.0140 oh         1 JTH      -0.531100
      5 C3          -0.6940    -0.8370    -0.0120 cd         1 JTH      -0.171000
      6 C4          -1.2620     0.4480    -0.0100 cd         1 JTH      -0.037200
      7 C5          -0.5590     1.6320    -0.0090 cc         1 JTH      -0.162000
      8 C6           0.8210     1.8530    -0.0090 cc         1 JTH      -0.164000
      9 C7           1.8680     0.9650    -0.0090 cd         1 JTH       0.040900
     10 O7           3.1050     1.4720    -0.0080 oh         1 JTH      -0.529100
     11 C41         -3.3700    -0.0880    -1.2820 c3         1 JTH      -0.087100
     12 C42         -2.7780     0.5220    -0.0120 c3         1 JTH      -0.027500
     13 C43         -3.3790    -0.1130     1.2410 c3         1 JTH      -0.087100
     14 H3          -1.3990    -1.6630    -0.0140 ha         1 JTH       0.198000
     15 H5          -1.1540     2.5370    -0.0080 ha         1 JTH       0.182000
     16 H6           1.1190     2.8960    -0.0090 ha         1 JTH       0.196000
     17 H41         -4.4500     0.0600    -1.3040 hc         1 JTH       0.039033
     18 H41A        -2.9490     0.3700    -2.1780 hc         1 JTH       0.039033
     19 H41B        -3.1890    -1.1630    -1.3390 hc         1 JTH       0.039033
     20 H42         -3.0460     1.5820    -0.0020 hc         1 JTH       0.050700
     21 H43         -2.9630     0.3260     2.1490 hc         1 JTH       0.039033
     22 H43A        -4.4590     0.0380     1.2580 hc         1 JTH       0.039033
     23 H43B        -3.2010    -1.1900     1.2770 hc         1 JTH       0.039033
     24 H11          1.8030    -2.6910    -0.0120 ho         1 JTH       0.497000
     25 H12          3.7240     0.7210    -0.0060 ho         1 JTH       0.496000
@<TRIPOS>BOND
     1     1     2 2   
     2     1     3 1   
     3     1     9 1   
     4     3     4 1   
     5     3     5 2   
     6     4    24 1   
     7     5     6 1   
     8     5    14 1   
     9     6     7 2   
    10     6    12 1   
    11     7     8 1   
    12     7    15 1   
    13     8     9 2   
    14     8    16 1   
    15     9    10 1   
    16    10    25 1   
    17    11    12 1   
    18    11    17 1   
    19    11    18 1   
    20    11    19 1   
    21    12    13 1   
    22    12    20 1   
    23    13    21 1   
    24    13    22 1   
    25    13    23 1   
@<TRIPOS>SUBSTRUCTURE
     1 JTH         1 TEMP              0 ****  ****    0 ROOT
