@<TRIPOS>MOLECULE
JTH
   25    25     1     0     0
SMALL
No Charge or Current Charge


@<TRIPOS>ATOM
      1 C1           1.8840    -0.4840    -0.0110 c          1 JTH       0.480500
      2 O1           2.9650    -1.0830    -0.0110 o          1 JTH      -0.625100
      3 C2           0.6270    -1.2850    -0.0170 cc         1 JTH       0.047900
      4 O2           0.9120    -2.6120    -0.0220 oh         1 JTH      -0.531100
      5 C3          -0.6970    -0.8990    -0.0180 cd         1 JTH      -0.171000
      6 C4          -1.2780     0.4270    -0.0130 cd         1 JTH      -0.037200
      7 C5          -0.5560     1.6130    -0.0070 cc         1 JTH      -0.162000
      8 C6           0.8530     1.8800    -0.0030 cc         1 JTH      -0.164000
      9 C7           1.9070     1.0040    -0.0040 cd         1 JTH       0.040900
     10 O7           3.1780     1.4870     0.0000 oh         1 JTH      -0.529100
     11 C41         -3.4180    -0.0840    -1.3010 c3         1 JTH      -0.087100
     12 C42         -2.8020     0.5150    -0.0160 c3         1 JTH      -0.027500
     13 C43         -3.4230    -0.0950     1.2620 c3         1 JTH      -0.087100
     14 H3          -1.4000    -1.7250    -0.0230 ha         1 JTH       0.198000
     15 H5          -1.1440     2.5280    -0.0040 ha         1 JTH       0.182000
     16 H6           1.1120     2.9370     0.0020 ha         1 JTH       0.196000
     17 H41         -4.5000     0.0910    -1.3270 hc         1 JTH       0.039033
     18 H41A        -2.9780     0.3830    -2.1910 hc         1 JTH       0.039033
     19 H41B        -3.2500    -1.1660    -1.3620 hc         1 JTH       0.039033
     20 H42         -3.1030     1.5700    -0.0120 hc         1 JTH       0.050700
     21 H43         -2.9870     0.3640     2.1570 hc         1 JTH       0.039033
     22 H43A        -4.5060     0.0800     1.2850 hc         1 JTH       0.039033
     23 H43B        -3.2550    -1.1770     1.3140 hc         1 JTH       0.039033
     24 H11          1.9020    -2.6500    -0.0200 ho         1 JTH       0.497000
     25 H12          3.7510     0.6800    -0.0020 ho         1 JTH       0.496000
@<TRIPOS>BOND
     1     1     2 2   
     2     1     3 1   
     3     1     9 1   
     4     3     4 1   
     5     3     5 2   
     6     4    24 1   
     7     5     6 1   
     8     5    14 1   
     9     6     7 2   
    10     6    12 1   
    11     7     8 1   
    12     7    15 1   
    13     8     9 2   
    14     8    16 1   
    15     9    10 1   
    16    10    25 1   
    17    11    12 1   
    18    11    17 1   
    19    11    18 1   
    20    11    19 1   
    21    12    13 1   
    22    12    20 1   
    23    13    21 1   
    24    13    22 1   
    25    13    23 1   
@<TRIPOS>SUBSTRUCTURE
     1 JTH         1 TEMP              0 ****  ****    0 ROOT
