@<TRIPOS>MOLECULE
JTJ
  175   176     1     0     0
SMALL
abcg2


@<TRIPOS>ATOM
      1 O1           5.8140     2.9120    -1.2100 os         1 JTJ      -0.475000
      2 C3           3.2030     3.4520    -0.1750 c6         1 JTJ       0.173300
      3 O4           2.9890     5.2710     1.3370 os         1 JTJ      -0.452000
      4 C5           5.0310     3.9290     1.4270 c6         1 JTJ       0.155300
      5 C6           5.7130     4.7210     0.3190 c6         1 JTJ       0.117300
      6 CBT         19.3570   -13.6630     2.3190 c3         1 JTJ      -0.088100
      7 CBS         18.7630   -12.2970     2.6330 c3         1 JTJ      -0.074400
      8 CBR         17.6450   -11.9050     1.6750 c3         1 JTJ      -0.075400
      9 CBQ         17.0420   -10.5390     1.9780 c3         1 JTJ      -0.074400
     10 CBP         15.9280   -10.1430     1.0160 c3         1 JTJ      -0.074400
     11 CBO         15.3280    -8.7770     1.3220 c3         1 JTJ      -0.074400
     12 CBN         14.2170    -8.3740     0.3600 c3         1 JTJ      -0.074400
     13 CBM         13.6230    -7.0070     0.6720 c3         1 JTJ      -0.074400
     14 CBL         12.5130    -6.5930    -0.2870 c3         1 JTJ      -0.074400
     15 CBK         11.9280    -5.2240     0.0350 c3         1 JTJ      -0.074400
     16 CBJ         10.8190    -4.7940    -0.9180 c3         1 JTJ      -0.073400
     17 CBI         10.2490    -3.4220    -0.5820 c3         1 JTJ      -0.076400
     18 CBG          8.6030    -1.5930    -1.1600 c3         1 JTJ      -0.109400
     19 CAQ          7.4980    -1.0860    -2.0820 c3         1 JTJ       0.138300
     20 OAR          6.3790    -1.9420    -2.0750 oh         1 JTJ      -0.638000
     21 CAP          7.1550     0.3850    -1.7610 c3         1 JTJ       0.129300
     22 OAS          8.2660     1.1960    -2.0640 oh         1 JTJ      -0.638000
     23 CAN          5.8780     0.8860    -2.4650 c3         1 JTJ       0.087700
     24 CAM          5.7890     2.4060    -2.5300 c3         1 JTJ       0.144600
     25 C1           5.2850     4.1860    -1.0520 c6         1 JTJ       0.357300
     26 O5           7.1030     4.6400     0.5120 oh         1 JTJ      -0.710000
     27 O3           5.3420     4.4310     2.7020 oh         1 JTJ      -0.723000
     28 O2           3.8880     4.2010    -1.1660 os         1 JTJ      -0.448000
     29 C2           1.7240     3.4960    -0.4890 c3         1 JTJ       0.167600
     30 O6           1.5020     2.7890    -1.6870 oh         1 JTJ      -0.714000
     31 C4           3.5180     3.9720     1.2240 c6         1 JTJ       0.149300
     32 CAT          2.6150     5.7000     2.6320 c3         1 JTJ       0.214900
     33 CAU          1.4940     6.6890     2.4970 ca         1 JTJ      -0.096300
     34 CAV          0.2530     6.2880     2.0010 ca         1 JTJ      -0.088500
     35 CAW         -0.7820     7.1970     1.8610 ca         1 JTJ      -0.114500
     36 CAX         -0.6150     8.5390     2.2090 ca         1 JTJ      -0.068300
     37 CBA         -1.7450     9.5150     2.0540 c3         1 JTJ      -0.047800
     38 CAY          0.6230     8.9350     2.7010 ca         1 JTJ      -0.114500
     39 CAZ          1.6640     8.0220     2.8410 ca         1 JTJ      -0.088500
     40 NAO          4.7050     0.3710    -1.7970 ns         1 JTJ      -0.504900
     41 CBE          3.6400    -0.1610    -2.4250 c          1 JTJ       0.612100
     42 OBF          3.5980    -0.3340    -3.6350 o          1 JTJ      -0.598100
     43 CBU          2.4970    -0.5420    -1.5090 c3         1 JTJ      -0.150400
     44 CBV          1.1520    -0.6260    -2.2170 c3         1 JTJ      -0.063400
     45 CBW         -0.0070    -0.6880    -1.2310 c3         1 JTJ      -0.076400
     46 CBX         -1.3650    -0.7710    -1.9150 c3         1 JTJ      -0.075400
     47 CBY         -2.5320    -0.7820    -0.9360 c3         1 JTJ      -0.074400
     48 CBZ         -3.8920    -0.8420    -1.6210 c3         1 JTJ      -0.074400
     49 CCA         -5.0600    -0.8440    -0.6430 c3         1 JTJ      -0.074400
     50 CCB         -6.4190    -0.8760    -1.3310 c3         1 JTJ      -0.074400
     51 CCC         -7.5900    -0.8770    -0.3550 c3         1 JTJ      -0.074400
     52 CCD         -8.9480    -0.8780    -1.0460 c3         1 JTJ      -0.074400
     53 CCE        -10.1200    -0.8790    -0.0730 c3         1 JTJ      -0.074400
     54 CCF        -11.4770    -0.8490    -0.7670 c3         1 JTJ      -0.074400
     55 CCG        -12.6520    -0.8510     0.2030 c3         1 JTJ      -0.074400
     56 CCH        -14.0060    -0.7930    -0.4940 c3         1 JTJ      -0.074400
     57 CCI        -15.1830    -0.7960     0.4730 c3         1 JTJ      -0.074400
     58 CCJ        -16.5350    -0.7170    -0.2260 c3         1 JTJ      -0.074400
     59 CCK        -17.7150    -0.7200     0.7380 c3         1 JTJ      -0.074400
     60 CCL        -19.0640    -0.6250     0.0360 c3         1 JTJ      -0.074400
     61 CCM        -20.2460    -0.6300     0.9970 c3         1 JTJ      -0.074400
     62 CCN        -21.5930    -0.5260     0.2930 c3         1 JTJ      -0.074400
     63 CCO        -22.7770    -0.5310     1.2520 c3         1 JTJ      -0.074400
     64 CCP        -24.1240    -0.4250     0.5470 c3         1 JTJ      -0.074400
     65 CCQ        -25.3080    -0.4300     1.5060 c3         1 JTJ      -0.075400
     66 CCR        -26.6550    -0.3280     0.8020 c3         1 JTJ      -0.075400
     67 CCS        -27.8290    -0.3350     1.7710 c3         1 JTJ      -0.088100
     68 H1           3.5160     2.4010    -0.2070 h1         1 JTJ       0.048700
     69 H2           5.3380     2.8740     1.3460 h1         1 JTJ       0.053700
     70 H3           5.3690     5.7620     0.3810 h1         1 JTJ       0.070700
     71 H4          19.7690   -13.6900     1.3080 hc         1 JTJ       0.031367
     72 H5          20.1610   -13.9220     3.0100 hc         1 JTJ       0.031367
     73 H6          18.6000   -14.4470     2.3850 hc         1 JTJ       0.031367
     74 H7          18.3790   -12.2900     3.6580 hc         1 JTJ       0.036700
     75 H8          19.5510   -11.5380     2.6000 hc         1 JTJ       0.036700
     76 H9          18.0290   -11.9110     0.6480 hc         1 JTJ       0.036700
     77 H10         16.8570   -12.6650     1.7070 hc         1 JTJ       0.036700
     78 H11         16.6540   -10.5340     3.0030 hc         1 JTJ       0.036700
     79 H12         17.8310    -9.7800     1.9500 hc         1 JTJ       0.036700
     80 H13         16.3160   -10.1480    -0.0090 hc         1 JTJ       0.036700
     81 H14         15.1380   -10.9020     1.0430 hc         1 JTJ       0.036700
     82 H15         14.9400    -8.7740     2.3470 hc         1 JTJ       0.036700
     83 H16         16.1200    -8.0200     1.2980 hc         1 JTJ       0.036700
     84 H17         14.6050    -8.3760    -0.6650 hc         1 JTJ       0.037700
     85 H18         13.4240    -9.1290     0.3840 hc         1 JTJ       0.037700
     86 H19         13.2350    -7.0070     1.6970 hc         1 JTJ       0.036700
     87 H20         14.4180    -6.2530     0.6510 hc         1 JTJ       0.036700
     88 H21         12.9000    -6.5910    -1.3120 hc         1 JTJ       0.037700
     89 H22         11.7150    -7.3440    -0.2660 hc         1 JTJ       0.037700
     90 H23         11.5420    -5.2280     1.0610 hc         1 JTJ       0.036700
     91 H24         12.7290    -4.4760     0.0180 hc         1 JTJ       0.036700
     92 H25         11.2030    -4.7870    -1.9440 hc         1 JTJ       0.038700
     93 H26         10.0150    -5.5370    -0.9000 hc         1 JTJ       0.038700
     94 H27          9.8690    -3.4320     0.4460 hc         1 JTJ       0.036200
     95 H28         11.0580    -2.6820    -0.5950 hc         1 JTJ       0.036200
     96 H29          9.5190    -2.9540    -2.5520 hc         1 JTJ       0.044700
     97 H30          8.3290    -3.7060    -1.5080 hc         1 JTJ       0.044700
     98 H31          8.2240    -1.6070    -0.1300 hc         1 JTJ       0.048200
     99 H32          9.4270    -0.8750    -1.1670 hc         1 JTJ       0.048200
    100 H33          7.8620    -1.1110    -3.1190 h1         1 JTJ       0.067700
    101 H34          6.0200    -1.9730    -1.1820 ho         1 JTJ       0.436000
    102 H35          7.0070     0.4870    -0.6790 h1         1 JTJ       0.077700
    103 H36          8.5040     1.0600    -2.9890 ho         1 JTJ       0.437000
    104 H37          5.8620     0.5210    -3.4950 h1         1 JTJ       0.093700
    105 H38          4.8520     2.6640    -3.0340 h1         1 JTJ       0.048700
    106 H39          6.6090     2.8270    -3.1210 h1         1 JTJ       0.048700
    107 H40          5.6410     4.8590    -1.8460 h2         1 JTJ       0.069700
    108 H41          7.5240     5.3720     0.0520 ho         1 JTJ       0.511000
    109 H42          6.3020     4.4620     2.7820 ho         1 JTJ       0.524000
    110 H43          1.1890     3.0390     0.3550 h1         1 JTJ       0.035700
    111 H44          1.3860     4.5360    -0.5620 h1         1 JTJ       0.035700
    112 H45          0.5560     2.7750    -1.8550 ho         1 JTJ       0.506000
    113 H46          3.0430     3.2990     1.9530 h1         1 JTJ       0.049700
    114 H47          2.2850     4.8430     3.2340 h1         1 JTJ       0.041200
    115 H48          3.4570     6.1570     3.1590 h1         1 JTJ       0.041200
    116 H49          0.0890     5.2520     1.7300 ha         1 JTJ       0.110000
    117 H50         -1.7380     6.8590     1.4780 ha         1 JTJ       0.110000
    118 H51         -2.0660     9.5880     1.0130 hc         1 JTJ       0.042367
    119 H52         -2.6160     9.2070     2.6340 hc         1 JTJ       0.042367
    120 H53         -1.4590    10.5130     2.3850 hc         1 JTJ       0.042367
    121 H54          0.7830     9.9700     2.9780 ha         1 JTJ       0.110000
    122 H55          2.6200     8.3610     3.2230 ha         1 JTJ       0.110000
    123 H56          4.6310     0.5470    -0.8070 hn         1 JTJ       0.307500
    124 H57          2.7390    -1.5030    -1.0430 hc         1 JTJ       0.051200
    125 H58          2.4340     0.1820    -0.6920 hc         1 JTJ       0.051200
    126 H59          1.0220     0.2470    -2.8610 hc         1 JTJ       0.057700
    127 H60          1.1260    -1.4990    -2.8740 hc         1 JTJ       0.057700
    128 H61          0.1180    -1.5460    -0.5610 hc         1 JTJ       0.032200
    129 H62          0.0230     0.2020    -0.5930 hc         1 JTJ       0.032200
    130 H63         -1.4770     0.0770    -2.6000 hc         1 JTJ       0.040200
    131 H64         -1.4060    -1.6700    -2.5400 hc         1 JTJ       0.040200
    132 H65         -2.4280    -1.6350    -0.2550 hc         1 JTJ       0.035200
    133 H66         -2.4830     0.1140    -0.3060 hc         1 JTJ       0.035200
    134 H67         -3.9920     0.0110    -2.3010 hc         1 JTJ       0.038700
    135 H68         -3.9430    -1.7370    -2.2510 hc         1 JTJ       0.038700
    136 H69         -4.9710    -1.7060     0.0280 hc         1 JTJ       0.036700
    137 H70         -4.9990     0.0440    -0.0030 hc         1 JTJ       0.036700
    138 H71         -6.5070    -0.0110    -1.9990 hc         1 JTJ       0.037700
    139 H72         -6.4820    -1.7610    -1.9740 hc         1 JTJ       0.037700
    140 H73         -7.5140    -1.7510     0.3020 hc         1 JTJ       0.037200
    141 H74         -7.5170    -0.0010     0.2990 hc         1 JTJ       0.037200
    142 H75         -9.0220    -0.0020    -1.7000 hc         1 JTJ       0.037200
    143 H76         -9.0220    -1.7520    -1.7040 hc         1 JTJ       0.037200
    144 H77        -10.0590    -1.7650     0.5700 hc         1 JTJ       0.037200
    145 H78        -10.0360    -0.0150     0.5960 hc         1 JTJ       0.037200
    146 H79        -11.5370     0.0390    -1.4060 hc         1 JTJ       0.037200
    147 H80        -11.5610    -1.7100    -1.4400 hc         1 JTJ       0.037200
    148 H81        -12.6030    -1.7470     0.8320 hc         1 JTJ       0.037200
    149 H82        -12.5590     0.0020     0.8860 hc         1 JTJ       0.037200
    150 H83        -14.0530     0.1050    -1.1190 hc         1 JTJ       0.037700
    151 H84        -14.0980    -1.6430    -1.1790 hc         1 JTJ       0.037700
    152 H85        -15.1450    -1.7010     1.0900 hc         1 JTJ       0.037200
    153 H86        -15.0840     0.0460     1.1670 hc         1 JTJ       0.037200
    154 H87        -16.5720     0.1900    -0.8410 hc         1 JTJ       0.037200
    155 H88        -16.6330    -1.5570    -0.9230 hc         1 JTJ       0.037200
    156 H89        -17.6840    -1.6310     1.3460 hc         1 JTJ       0.037200
    157 H90        -17.6110     0.1150     1.4400 hc         1 JTJ       0.037200
    158 H91        -19.0940     0.2870    -0.5710 hc         1 JTJ       0.036700
    159 H92        -19.1670    -1.4590    -0.6680 hc         1 JTJ       0.036700
    160 H93        -20.2200    -1.5440     1.6000 hc         1 JTJ       0.037200
    161 H94        -20.1410     0.2010     1.7040 hc         1 JTJ       0.037200
    162 H95        -21.6190     0.3890    -0.3100 hc         1 JTJ       0.036700
    163 H96        -21.6980    -1.3560    -0.4150 hc         1 JTJ       0.036700
    164 H97        -22.7530    -1.4460     1.8540 hc         1 JTJ       0.036700
    165 H98        -22.6720     0.2980     1.9610 hc         1 JTJ       0.036700
    166 H99        -24.1480     0.4910    -0.0550 hc         1 JTJ       0.036700
    167 H100       -24.2280    -1.2540    -0.1620 hc         1 JTJ       0.036700
    168 H101       -25.2830    -1.3450     2.1090 hc         1 JTJ       0.036700
    169 H102       -25.2050     0.4000     2.2140 hc         1 JTJ       0.036700
    170 H103       -26.6810     0.5860     0.2000 hc         1 JTJ       0.036700
    171 H104       -26.7580    -1.1570     0.0950 hc         1 JTJ       0.036700
    172 H105       -27.8430    -1.2510     2.3640 hc         1 JTJ       0.031367
    173 H106       -27.7700     0.5050     2.4650 hc         1 JTJ       0.031367
    174 H107       -28.7840    -0.2660     1.2490 hc         1 JTJ       0.031367
    175 CBH          9.1400    -2.9720    -1.5240 c3         1 JTJ      -0.070400
@<TRIPOS>BOND
     1     1    24 1   
     2     1    25 1   
     3     2    28 1   
     4     2    29 1   
     5     2    31 1   
     6     2    68 1   
     7     3    31 1   
     8     3    32 1   
     9     4     5 1   
    10     4    27 1   
    11     4    31 1   
    12     4    69 1   
    13     5    25 1   
    14     5    26 1   
    15     5    70 1   
    16     6     7 1   
    17     6    71 1   
    18     6    72 1   
    19     6    73 1   
    20     7     8 1   
    21     7    74 1   
    22     7    75 1   
    23     8     9 1   
    24     8    76 1   
    25     8    77 1   
    26     9    10 1   
    27     9    78 1   
    28     9    79 1   
    29    10    11 1   
    30    10    80 1   
    31    10    81 1   
    32    11    12 1   
    33    11    82 1   
    34    11    83 1   
    35    12    13 1   
    36    12    84 1   
    37    12    85 1   
    38    13    14 1   
    39    13    86 1   
    40    13    87 1   
    41    14    15 1   
    42    14    88 1   
    43    14    89 1   
    44    15    16 1   
    45    15    90 1   
    46    15    91 1   
    47    16    17 1   
    48    16    92 1   
    49    16    93 1   
    50    17    94 1   
    51    17    95 1   
    52    17   175 1   
    53    18    19 1   
    54    18    98 1   
    55    18    99 1   
    56    18   175 1   
    57    19    20 1   
    58    19    21 1   
    59    19   100 1   
    60    20   101 1   
    61    21    22 1   
    62    21    23 1   
    63    21   102 1   
    64    22   103 1   
    65    23    24 1   
    66    23    40 1   
    67    23   104 1   
    68    24   105 1   
    69    24   106 1   
    70    25    28 1   
    71    25   107 1   
    72    26   108 1   
    73    27   109 1   
    74    29    30 1   
    75    29   110 1   
    76    29   111 1   
    77    30   112 1   
    78    31   113 1   
    79    32    33 1   
    80    32   114 1   
    81    32   115 1   
    82    33    34 ar  
    83    33    39 ar  
    84    34    35 ar  
    85    34   116 1   
    86    35    36 ar  
    87    35   117 1   
    88    36    37 1   
    89    36    38 ar  
    90    37   118 1   
    91    37   119 1   
    92    37   120 1   
    93    38    39 ar  
    94    38   121 1   
    95    39   122 1   
    96    40    41 1   
    97    40   123 1   
    98    41    42 2   
    99    41    43 1   
   100    43    44 1   
   101    43   124 1   
   102    43   125 1   
   103    44    45 1   
   104    44   126 1   
   105    44   127 1   
   106    45    46 1   
   107    45   128 1   
   108    45   129 1   
   109    46    47 1   
   110    46   130 1   
   111    46   131 1   
   112    47    48 1   
   113    47   132 1   
   114    47   133 1   
   115    48    49 1   
   116    48   134 1   
   117    48   135 1   
   118    49    50 1   
   119    49   136 1   
   120    49   137 1   
   121    50    51 1   
   122    50   138 1   
   123    50   139 1   
   124    51    52 1   
   125    51   140 1   
   126    51   141 1   
   127    52    53 1   
   128    52   142 1   
   129    52   143 1   
   130    53    54 1   
   131    53   144 1   
   132    53   145 1   
   133    54    55 1   
   134    54   146 1   
   135    54   147 1   
   136    55    56 1   
   137    55   148 1   
   138    55   149 1   
   139    56    57 1   
   140    56   150 1   
   141    56   151 1   
   142    57    58 1   
   143    57   152 1   
   144    57   153 1   
   145    58    59 1   
   146    58   154 1   
   147    58   155 1   
   148    59    60 1   
   149    59   156 1   
   150    59   157 1   
   151    60    61 1   
   152    60   158 1   
   153    60   159 1   
   154    61    62 1   
   155    61   160 1   
   156    61   161 1   
   157    62    63 1   
   158    62   162 1   
   159    62   163 1   
   160    63    64 1   
   161    63   164 1   
   162    63   165 1   
   163    64    65 1   
   164    64   166 1   
   165    64   167 1   
   166    65    66 1   
   167    65   168 1   
   168    65   169 1   
   169    66    67 1   
   170    66   170 1   
   171    66   171 1   
   172    67   172 1   
   173    67   173 1   
   174    67   174 1   
   175    96   175 1   
   176    97   175 1   
@<TRIPOS>SUBSTRUCTURE
     1 JTJ         1 TEMP              0 ****  ****    0 ROOT
