@<TRIPOS>MOLECULE
JTJ
  175   176     1     0     0
SMALL
No Charge or Current Charge


@<TRIPOS>ATOM
      1 O1           5.1590     2.4700    -0.7200 os         1 JTJ      -0.475000
      2 C3           2.5290     3.5670    -1.4030 c6         1 JTJ       0.173300
      3 O4           1.2920     4.8690     0.2980 os         1 JTJ      -0.452000
      4 C5           2.7480     2.9150     1.0300 c6         1 JTJ       0.155300
      5 C6           4.0750     3.7270     1.0950 c6         1 JTJ       0.117300
      6 CBT         19.9930   -13.9360     1.7960 c3         1 JTJ      -0.088100
      7 CBS         19.5630   -12.4780     2.0470 c3         1 JTJ      -0.074400
      8 CBR         18.1560   -12.1580     1.4990 c3         1 JTJ      -0.075400
      9 CBQ         17.7290   -10.6950     1.7460 c3         1 JTJ      -0.074400
     10 CBP         16.3250   -10.3710     1.1900 c3         1 JTJ      -0.074400
     11 CBO         15.9060    -8.9030     1.4240 c3         1 JTJ      -0.074400
     12 CBN         14.5110    -8.5730     0.8500 c3         1 JTJ      -0.074400
     13 CBM         14.1010    -7.0990     1.0630 c3         1 JTJ      -0.074400
     14 CBL         12.7180    -6.7650     0.4600 c3         1 JTJ      -0.074400
     15 CBK         12.3220    -5.2830     0.6380 c3         1 JTJ      -0.074400
     16 CBJ         10.9580    -4.9430    -0.0020 c3         1 JTJ      -0.073400
     17 CBI         10.5840    -3.4510     0.1280 c3         1 JTJ      -0.076400
     18 CBG          8.8960    -1.5950    -0.4750 c3         1 JTJ      -0.109400
     19 CAQ          7.6390    -1.1780    -1.2910 c3         1 JTJ       0.138300
     20 OAR          6.5150    -1.9140    -0.7740 oh         1 JTJ      -0.638000
     21 CAP          7.3460     0.3710    -1.2550 c3         1 JTJ       0.129300
     22 OAS          8.5440     1.1140    -1.5730 oh         1 JTJ      -0.638000
     23 CAN          6.2020     0.8570    -2.2140 c3         1 JTJ       0.087700
     24 CAM          5.8450     2.3550    -1.9840 c3         1 JTJ       0.144600
     25 C1           4.7200     3.7870    -0.3310 c6         1 JTJ       0.357300
     26 O5           4.9660     3.1150     2.0620 oh         1 JTJ      -0.710000
     27 O3           2.1860     2.8080     2.3520 oh         1 JTJ      -0.723000
     28 O2           3.7770     4.3070    -1.2950 os         1 JTJ      -0.448000
     29 C2           1.6610     4.1970    -2.5430 c3         1 JTJ       0.167600
     30 O6           2.3180     4.2120    -3.8270 oh         1 JTJ      -0.714000
     31 C4           1.7780     3.5370    -0.0350 c6         1 JTJ       0.149300
     32 CAT          0.3620     5.0100     1.3880 c3         1 JTJ       0.214900
     33 CAU         -0.2710     6.3910     1.2940 ca         1 JTJ      -0.096300
     34 CAV         -1.5270     6.5600     0.6790 ca         1 JTJ      -0.088500
     35 CAW         -2.1100     7.8360     0.5950 ca         1 JTJ      -0.114500
     36 CAX         -1.4440     8.9580     1.1240 ca         1 JTJ      -0.068300
     37 CBA         -2.0740    10.3400     1.0290 c3         1 JTJ      -0.047800
     38 CAY         -0.1870     8.7910     1.7340 ca         1 JTJ      -0.114500
     39 CAZ          0.3970     7.5140     1.8190 ca         1 JTJ      -0.088500
     40 NAO          4.9960     0.0150    -2.1360 ns         1 JTJ      -0.504900
     41 CBE          3.9630     0.0160    -3.0400 c          1 JTJ       0.612100
     42 OBF          3.9890     0.6800    -4.0660 o          1 JTJ      -0.598100
     43 CBU          2.7920    -0.9060    -2.6820 c3         1 JTJ      -0.150400
     44 CBV          1.5770    -0.0900    -2.1790 c3         1 JTJ      -0.063400
     45 CBW          0.3270    -0.9550    -1.9160 c3         1 JTJ      -0.076400
     46 CBX         -0.8970    -0.1210    -1.4780 c3         1 JTJ      -0.075400
     47 CBY         -2.1620    -0.9780    -1.2560 c3         1 JTJ      -0.074400
     48 CBZ         -3.4070    -0.1360    -0.9020 c3         1 JTJ      -0.074400
     49 CCA         -4.6810    -0.9910    -0.7200 c3         1 JTJ      -0.074400
     50 CCB         -5.9420    -0.1440    -0.4390 c3         1 JTJ      -0.074400
     51 CCC         -7.2220    -0.9950    -0.2940 c3         1 JTJ      -0.074400
     52 CCD         -8.4920    -0.1440    -0.0780 c3         1 JTJ      -0.074400
     53 CCE         -9.7780    -0.9910     0.0380 c3         1 JTJ      -0.074400
     54 CCF        -11.0520    -0.1320     0.1970 c3         1 JTJ      -0.074400
     55 CCG        -12.3440    -0.9730     0.2920 c3         1 JTJ      -0.074400
     56 CCH        -13.6170    -0.1060     0.4080 c3         1 JTJ      -0.074400
     57 CCI        -14.9140    -0.9400     0.4910 c3         1 JTJ      -0.074400
     58 CCJ        -16.1850    -0.0670     0.5810 c3         1 JTJ      -0.074400
     59 CCK        -17.4870    -0.8930     0.6610 c3         1 JTJ      -0.074400
     60 CCL        -18.7530    -0.0120     0.7450 c3         1 JTJ      -0.074400
     61 CCM        -20.0600    -0.8310     0.8240 c3         1 JTJ      -0.074400
     62 CCN        -21.3220     0.0550     0.9160 c3         1 JTJ      -0.074400
     63 CCO        -22.6310    -0.7590     0.9990 c3         1 JTJ      -0.074400
     64 CCP        -23.8890     0.1320     1.1030 c3         1 JTJ      -0.074400
     65 CCQ        -25.2000    -0.6790     1.1920 c3         1 JTJ      -0.075400
     66 CCR        -26.4550     0.2140     1.3050 c3         1 JTJ      -0.075400
     67 CCS        -27.7640    -0.5930     1.3950 c3         1 JTJ      -0.088100
     68 H1           2.7630     2.5360    -1.7020 h1         1 JTJ       0.048700
     69 H2           2.9980     1.9020     0.6770 h1         1 JTJ       0.053700
     70 H3           3.8390     4.7570     1.4000 h1         1 JTJ       0.070700
     71 H4          20.0140   -14.1550     0.7220 hc         1 JTJ       0.031367
     72 H5          20.9960   -14.1150     2.2020 hc         1 JTJ       0.031367
     73 H6          19.2980   -14.6340     2.2790 hc         1 JTJ       0.031367
     74 H7          19.5870   -12.2800     3.1260 hc         1 JTJ       0.036700
     75 H8          20.2960   -11.8060     1.5830 hc         1 JTJ       0.036700
     76 H9          18.1350   -12.3630     0.4210 hc         1 JTJ       0.036700
     77 H10         17.4250   -12.8310     1.9660 hc         1 JTJ       0.036700
     78 H11         17.7460   -10.4910     2.8240 hc         1 JTJ       0.036700
     79 H12         18.4630   -10.0230     1.2820 hc         1 JTJ       0.036700
     80 H13         16.3080   -10.5830     0.1130 hc         1 JTJ       0.036700
     81 H14         15.5890   -11.0360     1.6590 hc         1 JTJ       0.036700
     82 H15         15.9130    -8.6930     2.5010 hc         1 JTJ       0.036700
     83 H16         16.6500    -8.2400     0.9630 hc         1 JTJ       0.036700
     84 H17         14.5020    -8.7970    -0.2240 hc         1 JTJ       0.037700
     85 H18         13.7640    -9.2270     1.3190 hc         1 JTJ       0.037700
     86 H19         14.0910    -6.8770     2.1370 hc         1 JTJ       0.036700
     87 H20         14.8580    -6.4480     0.6080 hc         1 JTJ       0.036700
     88 H21         12.7260    -7.0080    -0.6100 hc         1 JTJ       0.037700
     89 H22         11.9570    -7.4020     0.9280 hc         1 JTJ       0.037700
     90 H23         12.2900    -5.0430     1.7080 hc         1 JTJ       0.036700
     91 H24         13.0960    -4.6490     0.1890 hc         1 JTJ       0.036700
     92 H25         10.9840    -5.2150    -1.0650 hc         1 JTJ       0.038700
     93 H26         10.1760    -5.5550     0.4650 hc         1 JTJ       0.038700
     94 H27         10.5250    -3.1830     1.1910 hc         1 JTJ       0.036200
     95 H28         11.3840    -2.8420    -0.3120 hc         1 JTJ       0.036200
     96 H29          9.3020    -3.3960    -1.6170 hc         1 JTJ       0.044700
     97 H30          8.4490    -3.6980    -0.1010 hc         1 JTJ       0.044700
     98 H31          8.7560    -1.3130     0.5770 hc         1 JTJ       0.048200
     99 H32          9.7640    -1.0300    -0.8360 hc         1 JTJ       0.048200
    100 H33          7.8110    -1.4580    -2.3410 h1         1 JTJ       0.067700
    101 H34          6.7420    -2.8690    -0.8340 ho         1 JTJ       0.436000
    102 H35          7.0360     0.6080    -0.2270 h1         1 JTJ       0.077700
    103 H36          8.9100     0.7520    -2.4090 ho         1 JTJ       0.437000
    104 H37          6.5830     0.7700    -3.2400 h1         1 JTJ       0.093700
    105 H38          5.2020     2.7010    -2.8040 h1         1 JTJ       0.048700
    106 H39          6.7550     2.9690    -1.9940 h1         1 JTJ       0.048700
    107 H40          5.5930     4.4560    -0.2910 h2         1 JTJ       0.069700
    108 H41          5.4750     2.4320     1.5630 ho         1 JTJ       0.511000
    109 H42          2.9750     2.7890     2.9460 ho         1 JTJ       0.524000
    110 H43          0.7240     3.6260    -2.6090 h1         1 JTJ       0.035700
    111 H44          1.3950     5.2220    -2.2500 h1         1 JTJ       0.035700
    112 H45          1.7360     4.7130    -4.4430 ho         1 JTJ       0.506000
    113 H46          0.9080     2.8730    -0.1430 h1         1 JTJ       0.049700
    114 H47         -0.4220     4.2420     1.3360 h1         1 JTJ       0.041200
    115 H48          0.8680     4.9210     2.3570 h1         1 JTJ       0.041200
    116 H49         -2.0510     5.7010     0.2640 ha         1 JTJ       0.110000
    117 H50         -3.0800     7.9530     0.1160 ha         1 JTJ       0.110000
    118 H51         -1.7900    10.8330     0.0920 hc         1 JTJ       0.042367
    119 H52         -3.1690    10.2820     1.0600 hc         1 JTJ       0.042367
    120 H53         -1.7550    10.9830     1.8580 hc         1 JTJ       0.042367
    121 H54          0.3410     9.6500     2.1420 ha         1 JTJ       0.110000
    122 H55          1.3700     7.3980     2.2910 ha         1 JTJ       0.110000
    123 H56          4.9300    -0.6350    -1.3600 hn         1 JTJ       0.307500
    124 H57          2.4930    -1.4590    -3.5810 hc         1 JTJ       0.051200
    125 H58          3.0880    -1.6060    -1.8920 hc         1 JTJ       0.051200
    126 H59          1.8530     0.4300    -1.2540 hc         1 JTJ       0.057700
    127 H60          1.3290     0.6810    -2.9210 hc         1 JTJ       0.057700
    128 H61          0.0750    -1.5090    -2.8300 hc         1 JTJ       0.032200
    129 H62          0.5560    -1.6990    -1.1430 hc         1 JTJ       0.032200
    130 H63         -0.6570     0.4180    -0.5530 hc         1 JTJ       0.040200
    131 H64         -1.1060     0.6360    -2.2440 hc         1 JTJ       0.040200
    132 H65         -2.3680    -1.5550    -2.1660 hc         1 JTJ       0.035200
    133 H66         -1.9730    -1.7020    -0.4540 hc         1 JTJ       0.035200
    134 H67         -3.2140     0.4280     0.0190 hc         1 JTJ       0.038700
    135 H68         -3.5800     0.5990    -1.6980 hc         1 JTJ       0.038700
    136 H69         -4.8450    -1.5870    -1.6260 hc         1 JTJ       0.036700
    137 H70         -4.5280    -1.6980     0.1050 hc         1 JTJ       0.036700
    138 H71         -5.7900     0.4410     0.4770 hc         1 JTJ       0.037700
    139 H72         -6.0800     0.5740    -1.2580 hc         1 JTJ       0.037700
    140 H73         -7.3500    -1.6070    -1.1950 hc         1 JTJ       0.037200
    141 H74         -7.1020    -1.6880     0.5490 hc         1 JTJ       0.037200
    142 H75         -8.3740     0.4600     0.8300 hc         1 JTJ       0.037200
    143 H76         -8.5990     0.5570    -0.9160 hc         1 JTJ       0.037200
    144 H77         -9.8780    -1.6170    -0.8580 hc         1 JTJ       0.037200
    145 H78         -9.6880    -1.6690     0.8960 hc         1 JTJ       0.037200
    146 H79        -10.9580     0.4890     1.0980 hc         1 JTJ       0.037200
    147 H80        -11.1310     0.5530    -0.6570 hc         1 JTJ       0.037200
    148 H81        -12.4240    -1.6110    -0.5970 hc         1 JTJ       0.037200
    149 H82        -12.2790    -1.6390     1.1610 hc         1 JTJ       0.037200
    150 H83        -13.5400     0.5310     1.2990 hc         1 JTJ       0.037700
    151 H84        -13.6750     0.5640    -0.4590 hc         1 JTJ       0.037700
    152 H85        -14.9840    -1.5870    -0.3930 hc         1 JTJ       0.037200
    153 H86        -14.8650    -1.5990     1.3680 hc         1 JTJ       0.037200
    154 H87        -16.1150     0.5800     1.4660 hc         1 JTJ       0.037200
    155 H88        -16.2310     0.5930    -0.2950 hc         1 JTJ       0.037200
    156 H89        -17.5570    -1.5420    -0.2220 hc         1 JTJ       0.037200
    157 H90        -17.4450    -1.5500     1.5390 hc         1 JTJ       0.037200
    158 H91        -18.6810     0.6370     1.6270 hc         1 JTJ       0.036700
    159 H92        -18.7930     0.6450    -0.1330 hc         1 JTJ       0.036700
    160 H93        -20.1360    -1.4770    -0.0600 hc         1 JTJ       0.037200
    161 H94        -20.0190    -1.4910     1.7000 hc         1 JTJ       0.037200
    162 H95        -21.2430     0.7020     1.7990 hc         1 JTJ       0.036700
    163 H96        -21.3630     0.7140     0.0390 hc         1 JTJ       0.036700
    164 H97        -22.7150    -1.3990     0.1120 hc         1 JTJ       0.036700
    165 H98        -22.5880    -1.4230     1.8720 hc         1 JTJ       0.036700
    166 H99        -23.8020     0.7740     1.9890 hc         1 JTJ       0.036700
    167 H100       -23.9340     0.7960     0.2300 hc         1 JTJ       0.036700
    168 H101       -25.2900    -1.3160     0.3020 hc         1 JTJ       0.036700
    169 H102       -25.1530    -1.3470     2.0620 hc         1 JTJ       0.036700
    170 H103       -26.3680     0.8520     2.1940 hc         1 JTJ       0.036700
    171 H104       -26.5070     0.8820     0.4360 hc         1 JTJ       0.036700
    172 H105       -27.8990    -1.2160     0.5020 hc         1 JTJ       0.031367
    173 H106       -27.7570    -1.2470     2.2760 hc         1 JTJ       0.031367
    174 H107       -28.6250     0.0820     1.4760 hc         1 JTJ       0.031367
    175 CBH          9.2460    -3.1020    -0.5610 c3         1 JTJ      -0.070400
@<TRIPOS>BOND
     1     1    24 1   
     2     1    25 1   
     3     2    28 1   
     4     2    29 1   
     5     2    31 1   
     6     2    68 1   
     7     3    31 1   
     8     3    32 1   
     9     4     5 1   
    10     4    27 1   
    11     4    31 1   
    12     4    69 1   
    13     5    25 1   
    14     5    26 1   
    15     5    70 1   
    16     6     7 1   
    17     6    71 1   
    18     6    72 1   
    19     6    73 1   
    20     7     8 1   
    21     7    74 1   
    22     7    75 1   
    23     8     9 1   
    24     8    76 1   
    25     8    77 1   
    26     9    10 1   
    27     9    78 1   
    28     9    79 1   
    29    10    11 1   
    30    10    80 1   
    31    10    81 1   
    32    11    12 1   
    33    11    82 1   
    34    11    83 1   
    35    12    13 1   
    36    12    84 1   
    37    12    85 1   
    38    13    14 1   
    39    13    86 1   
    40    13    87 1   
    41    14    15 1   
    42    14    88 1   
    43    14    89 1   
    44    15    16 1   
    45    15    90 1   
    46    15    91 1   
    47    16    17 1   
    48    16    92 1   
    49    16    93 1   
    50    17    94 1   
    51    17    95 1   
    52    17   175 1   
    53    18    19 1   
    54    18    98 1   
    55    18    99 1   
    56    18   175 1   
    57    19    20 1   
    58    19    21 1   
    59    19   100 1   
    60    20   101 1   
    61    21    22 1   
    62    21    23 1   
    63    21   102 1   
    64    22   103 1   
    65    23    24 1   
    66    23    40 1   
    67    23   104 1   
    68    24   105 1   
    69    24   106 1   
    70    25    28 1   
    71    25   107 1   
    72    26   108 1   
    73    27   109 1   
    74    29    30 1   
    75    29   110 1   
    76    29   111 1   
    77    30   112 1   
    78    31   113 1   
    79    32    33 1   
    80    32   114 1   
    81    32   115 1   
    82    33    34 ar  
    83    33    39 ar  
    84    34    35 ar  
    85    34   116 1   
    86    35    36 ar  
    87    35   117 1   
    88    36    37 1   
    89    36    38 ar  
    90    37   118 1   
    91    37   119 1   
    92    37   120 1   
    93    38    39 ar  
    94    38   121 1   
    95    39   122 1   
    96    40    41 1   
    97    40   123 1   
    98    41    42 2   
    99    41    43 1   
   100    43    44 1   
   101    43   124 1   
   102    43   125 1   
   103    44    45 1   
   104    44   126 1   
   105    44   127 1   
   106    45    46 1   
   107    45   128 1   
   108    45   129 1   
   109    46    47 1   
   110    46   130 1   
   111    46   131 1   
   112    47    48 1   
   113    47   132 1   
   114    47   133 1   
   115    48    49 1   
   116    48   134 1   
   117    48   135 1   
   118    49    50 1   
   119    49   136 1   
   120    49   137 1   
   121    50    51 1   
   122    50   138 1   
   123    50   139 1   
   124    51    52 1   
   125    51   140 1   
   126    51   141 1   
   127    52    53 1   
   128    52   142 1   
   129    52   143 1   
   130    53    54 1   
   131    53   144 1   
   132    53   145 1   
   133    54    55 1   
   134    54   146 1   
   135    54   147 1   
   136    55    56 1   
   137    55   148 1   
   138    55   149 1   
   139    56    57 1   
   140    56   150 1   
   141    56   151 1   
   142    57    58 1   
   143    57   152 1   
   144    57   153 1   
   145    58    59 1   
   146    58   154 1   
   147    58   155 1   
   148    59    60 1   
   149    59   156 1   
   150    59   157 1   
   151    60    61 1   
   152    60   158 1   
   153    60   159 1   
   154    61    62 1   
   155    61   160 1   
   156    61   161 1   
   157    62    63 1   
   158    62   162 1   
   159    62   163 1   
   160    63    64 1   
   161    63   164 1   
   162    63   165 1   
   163    64    65 1   
   164    64   166 1   
   165    64   167 1   
   166    65    66 1   
   167    65   168 1   
   168    65   169 1   
   169    66    67 1   
   170    66   170 1   
   171    66   171 1   
   172    67   172 1   
   173    67   173 1   
   174    67   174 1   
   175    96   175 1   
   176    97   175 1   
@<TRIPOS>SUBSTRUCTURE
     1 JTJ         1 TEMP              0 ****  ****    0 ROOT
