@<TRIPOS>MOLECULE
JTK
   30    31     1     0     0
SMALL
abcg2


@<TRIPOS>ATOM
      1 OAS         -6.2430    -0.9880    -0.2480 o          1 JTK      -0.718000
      2 CAR         -5.1830    -0.6700     0.3200 c          1 JTK       0.725000
      3 OAT         -4.6390    -1.2600     1.2740 o          1 JTK      -0.718000
      4 CAP         -4.4710     0.6200    -0.1720 c3         1 JTK      -0.183400
      5 CAQ         -4.9350     1.0950    -1.5440 c3         1 JTK      -0.051100
      6 CAN         -2.9770     0.4560    -0.1240 ca         1 JTK       0.060700
      7 CAO         -2.1960     1.2320     0.7240 ca         1 JTK      -0.166000
      8 CAK         -0.8230     1.0870     0.7280 ca         1 JTK       0.182000
      9 FAL         -0.1090     1.8450     1.5780 f          1 JTK      -0.198000
     10 CAM         -2.3290    -0.4620    -0.9530 ca         1 JTK      -0.117000
     11 CAI         -0.9540    -0.5940    -0.9300 ca         1 JTK      -0.077000
     12 CAJ         -0.1560     0.1860    -0.0890 cp         1 JTK      -0.145000
     13 CAG          1.3110     0.0300    -0.0740 cp         1 JTK       0.029000
     14 CAH          2.1590     1.1340    -0.1560 ca         1 JTK      -0.094500
     15 CAD          3.5290     0.9390    -0.1730 ca         1 JTK       0.123000
     16 CL1          4.5740     2.3140    -0.2860 cl         1 JTK      -0.215500
     17 CAC          4.0950    -0.3250    -0.1110 ca         1 JTK      -0.117000
     18 CAB          3.2350    -1.4080    -0.0340 ca         1 JTK       0.123000
     19 CL2          3.9030    -3.0020     0.0470 cl         1 JTK      -0.215500
     20 CAF          1.8600    -1.2500    -0.0120 ca         1 JTK      -0.094500
     21 H2          -4.7340     1.3980     0.5560 hc         1 JTK       0.039700
     22 H3          -4.7530     0.3460    -2.3150 hc         1 JTK       0.018033
     23 H4          -6.0030     1.3080    -1.5380 hc         1 JTK       0.018033
     24 H5          -4.4150     2.0080    -1.8380 hc         1 JTK       0.018033
     25 H6          -2.6550     1.9540     1.3900 ha         1 JTK       0.126000
     26 H7          -2.9060    -1.0820    -1.6290 ha         1 JTK       0.129000
     27 H8          -0.4750    -1.3080    -1.5910 ha         1 JTK       0.101000
     28 H9           1.7590     2.1350    -0.2350 ha         1 JTK       0.141500
     29 H10          5.1670    -0.4600    -0.1260 ha         1 JTK       0.133000
     30 H11          1.2150    -2.1150     0.0640 ha         1 JTK       0.141500
@<TRIPOS>BOND
     1     1     2 1   
     2     2     3 1   
     3     2     4 1   
     4     4     5 1   
     5     4     6 1   
     6     4    21 1   
     7     5    22 1   
     8     5    23 1   
     9     5    24 1   
    10     6     7 ar  
    11     6    10 ar  
    12     7     8 ar  
    13     7    25 1   
    14     8     9 1   
    15     8    12 ar  
    16    10    11 ar  
    17    10    26 1   
    18    11    12 ar  
    19    11    27 1   
    20    12    13 1   
    21    13    14 ar  
    22    13    20 ar  
    23    14    15 ar  
    24    14    28 1   
    25    15    16 1   
    26    15    17 ar  
    27    17    18 ar  
    28    17    29 1   
    29    18    19 1   
    30    18    20 ar  
    31    20    30 1   
@<TRIPOS>SUBSTRUCTURE
     1 JTK         1 TEMP              0 ****  ****    0 ROOT
