@<TRIPOS>MOLECULE
JTK
   30    31     1     0     0
SMALL
No Charge or Current Charge


@<TRIPOS>ATOM
      1 OAS         -5.1080    -1.5930     0.0900 o          1 JTK      -0.718000
      2 CAR         -5.1990    -0.4700     0.5640 c          1 JTK       0.725000
      3 OAT         -5.7970    -0.2260     1.6020 o          1 JTK      -0.718000
      4 CAP         -4.5000     0.7010    -0.1600 c3         1 JTK      -0.183400
      5 CAQ         -5.0850     0.9370    -1.5750 c3         1 JTK      -0.051100
      6 CAN         -2.9810     0.5100    -0.1560 ca         1 JTK       0.060700
      7 CAO         -2.1930     1.2100     0.7760 ca         1 JTK      -0.166000
      8 CAK         -0.7980     1.0550     0.7960 ca         1 JTK       0.182000
      9 FAL         -0.0930     1.7300     1.7310 f          1 JTK      -0.198000
     10 CAM         -2.3430    -0.3610    -1.0630 ca         1 JTK      -0.117000
     11 CAI         -0.9470    -0.5190    -1.0430 ca         1 JTK      -0.077000
     12 CAJ         -0.1420     0.1900    -0.1180 cp         1 JTK      -0.145000
     13 CAG          1.3420     0.0060    -0.1180 cp         1 JTK       0.029000
     14 CAH          2.2250     1.1110    -0.0230 ca         1 JTK      -0.094500
     15 CAD          3.6170     0.9280    -0.0330 ca         1 JTK       0.123000
     16 Cl1          4.6860     2.3200     0.0860 cl         1 JTK      -0.215500
     17 CAC          4.1590    -0.3610    -0.1430 ca         1 JTK      -0.117000
     18 CAB          3.3030    -1.4670    -0.2460 ca         1 JTK       0.123000
     19 Cl2          3.9760    -3.0850    -0.3870 cl         1 JTK      -0.215500
     20 CAF          1.9100    -1.2860    -0.2370 ca         1 JTK      -0.094500
     21 H2          -4.7240     1.6090     0.4130 hc         1 JTK       0.039700
     22 H3          -4.9800     0.0500    -2.2110 hc         1 JTK       0.018033
     23 H4          -6.1530     1.1780    -1.5090 hc         1 JTK       0.018033
     24 H5          -4.5770     1.7760    -2.0660 hc         1 JTK       0.018033
     25 H6          -2.6610     1.8780     1.4940 ha         1 JTK       0.126000
     26 H7          -2.9280    -0.9260    -1.7840 ha         1 JTK       0.129000
     27 H8          -0.4840    -1.1920    -1.7610 ha         1 JTK       0.101000
     28 H9           1.8260     2.1190     0.0480 ha         1 JTK       0.141500
     29 H10          5.2360    -0.5010    -0.1520 ha         1 JTK       0.133000
     30 H11          1.2630    -2.1560    -0.3100 ha         1 JTK       0.141500
@<TRIPOS>BOND
     1     1     2 1   
     2     2     3 1   
     3     2     4 1   
     4     4     5 1   
     5     4     6 1   
     6     4    21 1   
     7     5    22 1   
     8     5    23 1   
     9     5    24 1   
    10     6     7 ar  
    11     6    10 ar  
    12     7     8 ar  
    13     7    25 1   
    14     8     9 1   
    15     8    12 ar  
    16    10    11 ar  
    17    10    26 1   
    18    11    12 ar  
    19    11    27 1   
    20    12    13 1   
    21    13    14 ar  
    22    13    20 ar  
    23    14    15 ar  
    24    14    28 1   
    25    15    16 1   
    26    15    17 ar  
    27    17    18 ar  
    28    17    29 1   
    29    18    19 1   
    30    18    20 ar  
    31    20    30 1   
@<TRIPOS>SUBSTRUCTURE
     1 JTK         1 TEMP              0 ****  ****    0 ROOT
