@<TRIPOS>MOLECULE
JTL
   30    32     1     0     0
SMALL
No Charge or Current Charge


@<TRIPOS>ATOM
      1 N3          13.2210    39.9130   -12.1050 ns         1 JTL      -0.498900
      2 C5          14.9860    37.4500   -14.3060 ca         1 JTL      -0.013000
      3 C6          14.8010    36.2090   -14.9440 ca         1 JTL       0.209000
      4 C7          12.6350    42.2820   -12.2530 cc         1 JTL      -0.237300
      5 C10         13.5470    35.5280   -14.7920 ca         1 JTL       0.234000
      6 C13         11.3060    42.6140   -12.3300 cd         1 JTL      -0.127000
      7 C15         11.0410    43.6890   -13.2200 cd         1 JTL      -0.130000
      8 C17         13.2730    41.2040   -11.4250 c3         1 JTL       0.179300
      9 C1          14.2410    39.3820   -12.8620 c          1 JTL       0.611700
     10 C2          13.9740    38.0440   -13.5200 ca         1 JTL      -0.148600
     11 S4          13.6040    43.3140   -13.3030 ss         1 JTL       0.205000
     12 N8          15.8110    35.6810   -15.6910 nb         1 JTL      -0.612000
     13 N9          13.3100    34.3260   -15.3850 nb         1 JTL      -0.626000
     14 C11         12.1660    44.1850   -13.8280 cc         1 JTL      -0.237000
     15 O12         15.3080    39.9650   -12.9930 o          1 JTL      -0.581100
     16 C14         12.7440    37.3600   -13.3790 ca         1 JTL      -0.087000
     17 C16         12.5420    36.1210   -14.0090 ca         1 JTL      -0.081000
     18 C18         15.5630    34.4800   -16.2790 ca         1 JTL       0.295900
     19 C19         14.3260    33.8100   -16.1270 ca         1 JTL       0.306900
     20 H1          12.3640    39.3810   -12.0490 hn         1 JTL       0.316500
     21 H2          15.9420    37.9530   -14.4320 ha         1 JTL       0.158000
     22 H3          10.5290    42.1040   -11.7660 ha         1 JTL       0.129000
     23 H4          10.0440    44.0800   -13.4010 ha         1 JTL       0.134000
     24 H5          12.7400    41.1180   -10.4680 h1         1 JTL       0.065200
     25 H6          14.3150    41.4700   -11.2000 h1         1 JTL       0.065200
     26 H7          12.2600    44.9920   -14.5430 h4         1 JTL       0.151000
     27 H8          11.9310    37.7720   -12.7860 ha         1 JTL       0.117000
     28 H9          11.5900    35.6100   -13.8900 ha         1 JTL       0.137000
     29 H10         16.3630    34.0490   -16.8780 h4         1 JTL       0.033100
     30 H11         14.1480    32.8480   -16.6070 h4         1 JTL       0.031100
@<TRIPOS>BOND
     1     1     8 1   
     2     1     9 1   
     3     1    20 1   
     4     2     3 ar  
     5     2    10 ar  
     6     2    21 1   
     7     3     5 ar  
     8     3    12 ar  
     9     4     6 2   
    10     4     8 1   
    11     4    11 1   
    12     5    13 ar  
    13     5    17 ar  
    14     6     7 1   
    15     6    22 1   
    16     7    14 2   
    17     7    23 1   
    18     8    24 1   
    19     8    25 1   
    20     9    10 1   
    21     9    15 2   
    22    10    16 ar  
    23    11    14 1   
    24    12    18 ar  
    25    13    19 ar  
    26    14    26 1   
    27    16    17 ar  
    28    16    27 1   
    29    17    28 1   
    30    18    19 ar  
    31    18    29 1   
    32    19    30 1   
@<TRIPOS>SUBSTRUCTURE
     1 JTL         1 TEMP              0 ****  ****    0 ROOT
