@<TRIPOS>MOLECULE
JTL
   30    32     1     0     0
SMALL
bcc


@<TRIPOS>ATOM
      1 N3          13.0870    39.8390   -11.8480 ns         1 JTL      -0.565900
      2 C5          14.5810    37.7590   -14.3960 ca         1 JTL      -0.096300
      3 C6          14.4440    36.5030   -15.0170 ca         1 JTL       0.274300
      4 C7          12.6850    42.2030   -12.3320 cc         1 JTL      -0.092400
      5 C10         13.6170    35.5180   -14.4300 ca         1 JTL       0.299300
      6 C13         11.9300    42.0320   -13.4530 cd         1 JTL      -0.145000
      7 C15         11.7140    43.2420   -14.1680 cd         1 JTL      -0.148000
      8 C17         13.0860    41.1760   -11.3100 c3         1 JTL       0.179300
      9 C1          14.0810    39.4000   -12.6420 c          1 JTL       0.678700
     10 C2          13.9020    38.0370   -13.2370 ca         1 JTL      -0.148600
     11 S4          13.1390    43.8540   -12.1480 ss         1 JTL      -0.084800
     12 N8          15.1120    36.2570   -16.1700 nb         1 JTL      -0.612000
     13 N9          13.4690    34.3010   -15.0060 nb         1 JTL      -0.626000
     14 C11         12.3070    44.3130   -13.5780 cc         1 JTL      -0.110100
     15 O12         15.0740    40.0680   -12.8830 o          1 JTL      -0.581100
     16 C14         13.0840    37.0430   -12.6480 ca         1 JTL      -0.105000
     17 C16         12.9450    35.8120   -13.2270 ca         1 JTL      -0.164300
     18 C18         14.9510    35.0800   -16.7020 ca         1 JTL       0.295900
     19 C19         14.1200    34.0920   -16.1130 ca         1 JTL       0.306900
     20 H1          12.2310    39.3140   -11.7770 hn         1 JTL       0.316500
     21 H2          15.2220    38.4970   -14.8610 ha         1 JTL       0.176000
     22 H3          11.5420    41.0730   -13.7670 ha         1 JTL       0.147000
     23 H4          11.1430    43.3080   -15.0840 ha         1 JTL       0.152000
     24 H5          12.3890    41.1910   -10.4700 h1         1 JTL       0.065200
     25 H6          14.0700    41.4060   -10.9000 h1         1 JTL       0.065200
     26 H7          12.3070    45.3430   -13.9020 h4         1 JTL       0.169000
     27 H8          12.5750    37.2350   -11.7120 ha         1 JTL       0.135000
     28 H9          12.3270    35.0490   -12.7720 ha         1 JTL       0.155000
     29 H10         15.4750    34.8620   -17.6250 h4         1 JTL       0.033100
     30 H11         14.0150    33.1250   -16.5910 h4         1 JTL       0.031100
@<TRIPOS>BOND
     1     1     8 1   
     2     1     9 1   
     3     1    20 1   
     4     2     3 ar  
     5     2    10 ar  
     6     2    21 1   
     7     3     5 ar  
     8     3    12 ar  
     9     4     6 2   
    10     4     8 1   
    11     4    11 1   
    12     5    13 ar  
    13     5    17 ar  
    14     6     7 1   
    15     6    22 1   
    16     7    14 2   
    17     7    23 1   
    18     8    24 1   
    19     8    25 1   
    20     9    10 1   
    21     9    15 2   
    22    10    16 ar  
    23    11    14 1   
    24    12    18 ar  
    25    13    19 ar  
    26    14    26 1   
    27    16    17 ar  
    28    16    27 1   
    29    17    28 1   
    30    18    19 ar  
    31    18    29 1   
    32    19    30 1   
@<TRIPOS>SUBSTRUCTURE
     1 JTL         1 TEMP              0 ****  ****    0 ROOT
