@<TRIPOS>MOLECULE
JTM
  172   173     1     0     0
SMALL
No Charge or Current Charge


@<TRIPOS>ATOM
      1 C1           4.9120    -3.6930     0.6910 c6         1 JTM       0.357300
      2 C2           1.4750    -3.8690     2.2940 c3         1 JTM       0.168600
      3 C3           2.5570    -3.3810     1.2740 c6         1 JTM       0.172300
      4 C4           2.0890    -3.5380    -0.2070 c6         1 JTM       0.149300
      5 C5           3.2540    -3.0410    -1.1330 c6         1 JTM       0.152300
      6 C6           4.5630    -3.8270    -0.8300 c6         1 JTM       0.117300
      7 CBT         18.8420    14.9790    -2.0200 c3         1 JTM      -0.088100
      8 CBS         18.5380    13.4750    -2.1550 c3         1 JTM      -0.074400
      9 CBR         17.1220    13.0970    -1.6660 c3         1 JTM      -0.075400
     10 CBQ         16.8240    11.5870    -1.7920 c3         1 JTM      -0.074400
     11 CBP         15.4140    11.2050    -1.2910 c3         1 JTM      -0.074400
     12 CBO         15.1290     9.6910    -1.3940 c3         1 JTM      -0.074400
     13 CBN         13.7310     9.3010    -0.8660 c3         1 JTM      -0.074400
     14 CBM         13.4610     7.7810    -0.9420 c3         1 JTM      -0.074400
     15 CBL         12.0790     7.3810    -0.3810 c3         1 JTM      -0.074400
     16 CBK         11.8260     5.8580    -0.4320 c3         1 JTM      -0.074400
     17 CBJ         10.4610     5.4500     0.1620 c3         1 JTM      -0.074400
     18 CBI         10.2210     3.9250     0.1320 c3         1 JTM      -0.075400
     19 CBG          8.6430     1.9800     0.7520 c3         1 JTM      -0.107400
     20 CAQ          7.3400     1.5230     1.4680 c3         1 JTM       0.136300
     21 OAR          6.2270     2.0870     0.7510 oh         1 JTM      -0.638000
     22 CAP          7.1810    -0.0410     1.5720 c3         1 JTM       0.129300
     23 OAS          8.3950    -0.6380     2.0780 oh         1 JTM      -0.640000
     24 CAN          5.9910    -0.5340     2.4690 c3         1 JTM       0.087700
     25 O1           5.2690    -2.3300     0.9940 os         1 JTM      -0.473000
     26 O5           5.6300    -3.3270    -1.6740 oh         1 JTM      -0.710000
     27 O3           2.9660    -3.1200    -2.5420 oh         1 JTM      -0.725000
     28 O2           3.7950    -4.1080     1.5090 os         1 JTM      -0.448000
     29 O6           1.8680    -3.7030     3.6710 oh         1 JTM      -0.712000
     30 O4           1.6620    -4.9090    -0.4550 os         1 JTM      -0.451000
     31 CAT          0.9660    -5.2010    -1.6800 c3         1 JTM       0.213900
     32 CAU          0.2810    -6.5520    -1.5270 ca         1 JTM      -0.088300
     33 CAV         -1.0430    -6.6250    -1.0490 ca         1 JTM      -0.085500
     34 CAW         -1.6770    -7.8720    -0.9100 ca         1 JTM      -0.106500
     35 CAX         -0.9900    -9.0500    -1.2460 ca         1 JTM       0.124000
     36 Cl          -1.7860   -10.6100    -1.0720 cl         1 JTM      -0.204000
     37 CAY          0.3300    -8.9850    -1.7190 ca         1 JTM      -0.106500
     38 CAZ          0.9660    -7.7380    -1.8590 ca         1 JTM      -0.085500
     39 NAO          4.7460     0.2170     2.2450 ns         1 JTM      -0.501900
     40 CBE          3.6860     0.2690     3.1180 c          1 JTM       0.616100
     41 OBF          3.7070    -0.2900     4.2050 o          1 JTM      -0.601100
     42 CBU          2.4990     1.1180     2.6500 c3         1 JTM      -0.150400
     43 CBV          1.3080     0.2270     2.2230 c3         1 JTM      -0.065400
     44 CBW          0.0430     1.0320     1.8590 c3         1 JTM      -0.075400
     45 CBX         -1.1630     0.1290     1.5150 c3         1 JTM      -0.075400
     46 CBY         -2.4330     0.9320     1.1580 c3         1 JTM      -0.073400
     47 CBZ         -3.6710     0.0400     0.9180 c3         1 JTM      -0.075400
     48 CCA         -4.9370     0.8570     0.5770 c3         1 JTM      -0.073400
     49 CCB         -6.2060    -0.0110     0.4290 c3         1 JTM      -0.074400
     50 CCC         -7.4670     0.8220     0.1100 c3         1 JTM      -0.074400
     51 CCD         -8.7580    -0.0230     0.0410 c3         1 JTM      -0.074400
     52 CCE        -10.0130     0.8260    -0.2600 c3         1 JTM      -0.074400
     53 CCF        -11.3220     0.0060    -0.2550 c3         1 JTM      -0.074400
     54 CCG        -12.5680     0.8700    -0.5470 c3         1 JTM      -0.074400
     55 CCH        -13.8930     0.0810    -0.4730 c3         1 JTM      -0.074400
     56 CCI        -15.1300     0.9590    -0.7640 c3         1 JTM      -0.074400
     57 CCJ        -16.4660     0.1980    -0.6210 c3         1 JTM      -0.074400
     58 CCK        -17.6960     1.0850    -0.9110 c3         1 JTM      -0.074400
     59 CCL        -19.0390     0.3530    -0.6960 c3         1 JTM      -0.074400
     60 CCM        -20.2640     1.2520    -0.9760 c3         1 JTM      -0.074400
     61 CCN        -21.6090     0.5500    -0.6880 c3         1 JTM      -0.074400
     62 CCO        -22.8310     1.4570    -0.9500 c3         1 JTM      -0.074400
     63 CCP        -24.1730     0.7780    -0.6000 c3         1 JTM      -0.074400
     64 CCQ        -25.3950     1.6890    -0.8480 c3         1 JTM      -0.075400
     65 CCR        -26.7350     1.0210    -0.4660 c3         1 JTM      -0.074400
     66 CCS        -27.9530     1.9320    -0.7100 c3         1 JTM      -0.088100
     67 H1           5.7730    -4.3440     0.9080 h2         1 JTM       0.070700
     68 H2           0.5490    -3.3100     2.1000 h1         1 JTM       0.034200
     69 H3           1.2620    -4.9280     2.0940 h1         1 JTM       0.034200
     70 H4           2.7390    -2.3170     1.4750 h1         1 JTM       0.052700
     71 H5           1.2210    -2.8790    -0.3570 h1         1 JTM       0.050700
     72 H6           3.4350    -1.9860    -0.8750 h1         1 JTM       0.054700
     73 H7           4.3850    -4.8920    -1.0390 h1         1 JTM       0.069700
     74 H8          18.7730    15.2960    -0.9730 hc         1 JTM       0.031367
     75 H9          19.8550    15.1970    -2.3780 hc         1 JTM       0.031367
     76 H10         18.1340    15.5730    -2.6100 hc         1 JTM       0.031367
     77 H11         18.6500    13.1800    -3.2060 hc         1 JTM       0.036700
     78 H12         19.2820    12.9080    -1.5820 hc         1 JTM       0.036700
     79 H13         17.0110    13.4010    -0.6180 hc         1 JTM       0.036700
     80 H14         16.3780    13.6610    -2.2440 hc         1 JTM       0.036700
     81 H15         16.9280    11.2850    -2.8410 hc         1 JTM       0.036700
     82 H16         17.5740    11.0250    -1.2200 hc         1 JTM       0.036700
     83 H17         15.3070    11.5210    -0.2450 hc         1 JTM       0.036700
     84 H18         14.6630    11.7550    -1.8710 hc         1 JTM       0.036700
     85 H19         15.2210     9.3760    -2.4410 hc         1 JTM       0.037200
     86 H20         15.8910     9.1430    -0.8260 hc         1 JTM       0.037200
     87 H21         13.6350     9.6310     0.1760 hc         1 JTM       0.037700
     88 H22         12.9640     9.8330    -1.4430 hc         1 JTM       0.037700
     89 H23         13.5360     7.4530    -1.9860 hc         1 JTM       0.037200
     90 H24         14.2420     7.2510    -0.3830 hc         1 JTM       0.037200
     91 H25         12.0010     7.7240     0.6590 hc         1 JTM       0.037700
     92 H26         11.2950     7.8970    -0.9480 hc         1 JTM       0.037700
     93 H27         11.8830     5.5180    -1.4740 hc         1 JTM       0.036700
     94 H28         12.6250     5.3430     0.1170 hc         1 JTM       0.036700
     95 H29         10.4000     5.8040     1.1990 hc         1 JTM       0.038200
     96 H30          9.6600     5.9530    -0.3950 hc         1 JTM       0.038200
     97 H31         10.2610     3.5730    -0.9060 hc         1 JTM       0.036700
     98 H32         11.0340     3.4230     0.6720 hc         1 JTM       0.036700
     99 H33          8.8290     3.8770     1.7910 hc         1 JTM       0.044700
    100 H34          8.0620     4.0130     0.2080 hc         1 JTM       0.044700
    101 H35          8.6380     1.6130    -0.2830 hc         1 JTM       0.048700
    102 H36          9.5080     1.5170     1.2410 hc         1 JTM       0.048700
    103 H37          7.3600     1.9250     2.4910 h1         1 JTM       0.069700
    104 H38          6.5070     2.9820     0.4420 ho         1 JTM       0.434000
    105 H39          7.0000    -0.4060     0.5520 h1         1 JTM       0.078700
    106 H40          8.6380    -0.1730     2.9080 ho         1 JTM       0.438000
    107 H41          6.2820    -0.3520     3.5120 h1         1 JTM       0.091700
    108 H42          6.6720    -2.6150     2.5310 h1         1 JTM       0.049200
    109 H43          5.0010    -2.3770     3.0750 h1         1 JTM       0.049200
    110 H44          6.0360    -2.5750    -1.1800 ho         1 JTM       0.511000
    111 H45          3.8580    -3.1600    -2.9660 ho         1 JTM       0.525000
    112 H46          1.1780    -4.1400     4.2230 ho         1 JTM       0.506000
    113 H47          0.2110    -4.4320    -1.8950 h1         1 JTM       0.044200
    114 H48          1.6590    -5.2490    -2.5290 h1         1 JTM       0.044200
    115 H49         -1.5790    -5.7160    -0.7850 ha         1 JTM       0.116000
    116 H50         -2.6990    -7.9260    -0.5420 ha         1 JTM       0.129000
    117 H51          0.8600    -9.8990    -1.9760 ha         1 JTM       0.129000
    118 H52          1.9900    -7.6930    -2.2230 ha         1 JTM       0.116000
    119 H53          4.6830     0.7830     1.4060 hn         1 JTM       0.308500
    120 H54          2.1770     1.7540     3.4830 hc         1 JTM       0.050700
    121 H55          2.7910     1.7400     1.7960 hc         1 JTM       0.050700
    122 H56          1.6040    -0.3780     1.3580 hc         1 JTM       0.057200
    123 H57          1.0680    -0.4690     3.0370 hc         1 JTM       0.057200
    124 H58         -0.2260     1.6820     2.7020 hc         1 JTM       0.032700
    125 H59          0.2630     1.6860     1.0070 hc         1 JTM       0.032700
    126 H60         -0.9000    -0.5260     0.6750 hc         1 JTM       0.040200
    127 H61         -1.3780    -0.5210     2.3730 hc         1 JTM       0.040200
    128 H62         -2.6530     1.6340     1.9720 hc         1 JTM       0.036200
    129 H63         -2.2390     1.5330     0.2600 hc         1 JTM       0.036200
    130 H64         -3.4610    -0.6630     0.1020 hc         1 JTM       0.037700
    131 H65         -3.8590    -0.5590     1.8170 hc         1 JTM       0.037700
    132 H66         -5.1060     1.6010     1.3660 hc         1 JTM       0.037200
    133 H67         -4.7690     1.4120    -0.3550 hc         1 JTM       0.037200
    134 H68         -6.0500    -0.7520    -0.3650 hc         1 JTM       0.037200
    135 H69         -6.3690    -0.5690     1.3610 hc         1 JTM       0.037200
    136 H70         -7.5900     1.5960     0.8790 hc         1 JTM       0.036700
    137 H71         -7.3240     1.3420    -0.8450 hc         1 JTM       0.036700
    138 H72         -8.6480    -0.7930    -0.7330 hc         1 JTM       0.037700
    139 H73         -8.8970    -0.5440     0.9960 hc         1 JTM       0.037700
    140 H74        -10.0920     1.6260     0.4870 hc         1 JTM       0.036700
    141 H75         -9.8950     1.3120    -1.2370 hc         1 JTM       0.036700
    142 H76        -11.2520    -0.7950    -1.0020 hc         1 JTM       0.037200
    143 H77        -11.4380    -0.4770     0.7240 hc         1 JTM       0.037200
    144 H78        -12.6070     1.6980     0.1720 hc         1 JTM       0.036700
    145 H79        -12.4700     1.3180    -1.5440 hc         1 JTM       0.036700
    146 H80        -13.8620    -0.7500    -1.1900 hc         1 JTM       0.037200
    147 H81        -13.9920    -0.3620     0.5270 hc         1 JTM       0.037200
    148 H82        -15.1330     1.8150    -0.0770 hc         1 JTM       0.037200
    149 H83        -15.0520     1.3660    -1.7800 hc         1 JTM       0.037200
    150 H84        -16.4690    -0.6610    -1.3050 hc         1 JTM       0.037200
    151 H85        -16.5420    -0.2030     0.3980 hc         1 JTM       0.037200
    152 H86        -17.6640     1.9680    -0.2590 hc         1 JTM       0.036700
    153 H87        -17.6440     1.4490    -1.9450 hc         1 JTM       0.036700
    154 H88        -19.0800    -0.5290    -1.3480 hc         1 JTM       0.036700
    155 H89        -19.0880    -0.0090     0.3390 hc         1 JTM       0.036700
    156 H90        -20.1940     2.1570    -0.3600 hc         1 JTM       0.036700
    157 H91        -20.2410     1.5760    -2.0240 hc         1 JTM       0.036700
    158 H92        -21.6880    -0.3510    -1.3090 hc         1 JTM       0.037200
    159 H93        -21.6240     0.2210     0.3590 hc         1 JTM       0.037200
    160 H94        -22.7300     2.3760    -0.3580 hc         1 JTM       0.036700
    161 H95        -22.8400     1.7560    -2.0060 hc         1 JTM       0.036700
    162 H96        -24.2800    -0.1390    -1.1950 hc         1 JTM       0.036700
    163 H97        -24.1590     0.4750     0.4540 hc         1 JTM       0.036700
    164 H98        -25.2780     2.6140    -0.2690 hc         1 JTM       0.036700
    165 H99        -25.4230     1.9750    -1.9070 hc         1 JTM       0.036700
    166 H100       -26.8590     0.0970    -1.0430 hc         1 JTM       0.036700
    167 H101       -26.7110     0.7370     0.5940 hc         1 JTM       0.036700
    168 H102       -28.8780     1.4200    -0.4210 hc         1 JTM       0.031367
    169 H103       -27.8730     2.8540    -0.1200 hc         1 JTM       0.031367
    170 H104       -28.0280     2.2050    -1.7700 hc         1 JTM       0.031367
    171 CAM          5.7440    -2.0640     2.3300 c3         1 JTM       0.144600
    172 CBH          8.8690     3.5130     0.7570 c3         1 JTM      -0.071400
@<TRIPOS>BOND
     1     1     6 1   
     2     1    25 1   
     3     1    28 1   
     4     1    67 1   
     5     2     3 1   
     6     2    29 1   
     7     2    68 1   
     8     2    69 1   
     9     3     4 1   
    10     3    28 1   
    11     3    70 1   
    12     4     5 1   
    13     4    30 1   
    14     4    71 1   
    15     5     6 1   
    16     5    27 1   
    17     5    72 1   
    18     6    26 1   
    19     6    73 1   
    20     7     8 1   
    21     7    74 1   
    22     7    75 1   
    23     7    76 1   
    24     8     9 1   
    25     8    77 1   
    26     8    78 1   
    27     9    10 1   
    28     9    79 1   
    29     9    80 1   
    30    10    11 1   
    31    10    81 1   
    32    10    82 1   
    33    11    12 1   
    34    11    83 1   
    35    11    84 1   
    36    12    13 1   
    37    12    85 1   
    38    12    86 1   
    39    13    14 1   
    40    13    87 1   
    41    13    88 1   
    42    14    15 1   
    43    14    89 1   
    44    14    90 1   
    45    15    16 1   
    46    15    91 1   
    47    15    92 1   
    48    16    17 1   
    49    16    93 1   
    50    16    94 1   
    51    17    18 1   
    52    17    95 1   
    53    17    96 1   
    54    18    97 1   
    55    18    98 1   
    56    18   172 1   
    57    19    20 1   
    58    19   101 1   
    59    19   102 1   
    60    19   172 1   
    61    20    21 1   
    62    20    22 1   
    63    20   103 1   
    64    21   104 1   
    65    22    23 1   
    66    22    24 1   
    67    22   105 1   
    68    23   106 1   
    69    24    39 1   
    70    24   107 1   
    71    24   171 1   
    72    25   171 1   
    73    26   110 1   
    74    27   111 1   
    75    29   112 1   
    76    30    31 1   
    77    31    32 1   
    78    31   113 1   
    79    31   114 1   
    80    32    33 ar  
    81    32    38 ar  
    82    33    34 ar  
    83    33   115 1   
    84    34    35 ar  
    85    34   116 1   
    86    35    36 1   
    87    35    37 ar  
    88    37    38 ar  
    89    37   117 1   
    90    38   118 1   
    91    39    40 1   
    92    39   119 1   
    93    40    41 2   
    94    40    42 1   
    95    42    43 1   
    96    42   120 1   
    97    42   121 1   
    98    43    44 1   
    99    43   122 1   
   100    43   123 1   
   101    44    45 1   
   102    44   124 1   
   103    44   125 1   
   104    45    46 1   
   105    45   126 1   
   106    45   127 1   
   107    46    47 1   
   108    46   128 1   
   109    46   129 1   
   110    47    48 1   
   111    47   130 1   
   112    47   131 1   
   113    48    49 1   
   114    48   132 1   
   115    48   133 1   
   116    49    50 1   
   117    49   134 1   
   118    49   135 1   
   119    50    51 1   
   120    50   136 1   
   121    50   137 1   
   122    51    52 1   
   123    51   138 1   
   124    51   139 1   
   125    52    53 1   
   126    52   140 1   
   127    52   141 1   
   128    53    54 1   
   129    53   142 1   
   130    53   143 1   
   131    54    55 1   
   132    54   144 1   
   133    54   145 1   
   134    55    56 1   
   135    55   146 1   
   136    55   147 1   
   137    56    57 1   
   138    56   148 1   
   139    56   149 1   
   140    57    58 1   
   141    57   150 1   
   142    57   151 1   
   143    58    59 1   
   144    58   152 1   
   145    58   153 1   
   146    59    60 1   
   147    59   154 1   
   148    59   155 1   
   149    60    61 1   
   150    60   156 1   
   151    60   157 1   
   152    61    62 1   
   153    61   158 1   
   154    61   159 1   
   155    62    63 1   
   156    62   160 1   
   157    62   161 1   
   158    63    64 1   
   159    63   162 1   
   160    63   163 1   
   161    64    65 1   
   162    64   164 1   
   163    64   165 1   
   164    65    66 1   
   165    65   166 1   
   166    65   167 1   
   167    66   168 1   
   168    66   169 1   
   169    66   170 1   
   170    99   172 1   
   171   100   172 1   
   172   108   171 1   
   173   109   171 1   
@<TRIPOS>SUBSTRUCTURE
     1 JTM         1 TEMP              0 ****  ****    0 ROOT
