@<TRIPOS>MOLECULE
JTM
  172   173     1     0     0
SMALL
abcg2


@<TRIPOS>ATOM
      1 C1           5.8090    -4.3960     1.2120 c6         1 JTM       0.357300
      2 C2           2.1760    -4.2820     0.7160 c3         1 JTM       0.168600
      3 C3           3.6260    -4.1090     0.3240 c6         1 JTM       0.172300
      4 C4           3.9760    -4.7950    -0.9920 c6         1 JTM       0.149300
      5 C5           5.4570    -4.5470    -1.2700 c6         1 JTM       0.152300
      6 C6           6.2870    -5.0450    -0.0920 c6         1 JTM       0.117300
      7 CBT         17.0620    15.6570    -1.7890 c3         1 JTM      -0.088100
      8 CBS         16.9770    14.1390    -1.8560 c3         1 JTM      -0.074400
      9 CBR         15.6400    13.5980    -1.3630 c3         1 JTM      -0.075400
     10 CBQ         15.5410    12.0790    -1.4260 c3         1 JTM      -0.074400
     11 CBP         14.2050    11.5430    -0.9260 c3         1 JTM      -0.074400
     12 CBO         14.1010    10.0250    -0.9910 c3         1 JTM      -0.074400
     13 CBN         12.7660     9.4920    -0.4840 c3         1 JTM      -0.074400
     14 CBM         12.6560     7.9740    -0.5540 c3         1 JTM      -0.074400
     15 CBL         11.3260     7.4440    -0.0330 c3         1 JTM      -0.074400
     16 CBK         11.2070     5.9270    -0.1140 c3         1 JTM      -0.074400
     17 CBJ          9.8920     5.3970     0.4430 c3         1 JTM      -0.074400
     18 CBI          9.7590     3.8830     0.3380 c3         1 JTM      -0.075400
     19 CBG          8.3340     1.8400     0.8150 c3         1 JTM      -0.107400
     20 CAQ          7.1520     1.2600     1.5890 c3         1 JTM       0.136300
     21 OAR          5.9430     1.8960     1.2450 oh         1 JTM      -0.638000
     22 CAP          7.0800    -0.2750     1.4530 c3         1 JTM       0.129300
     23 OAS          8.2800    -0.8480     1.9160 oh         1 JTM      -0.640000
     24 CAN          5.8600    -0.8890     2.1710 c3         1 JTM       0.087700
     25 O1           6.1360    -3.0460     1.1880 os         1 JTM      -0.473000
     26 O5           7.6380    -4.7690    -0.3610 oh         1 JTM      -0.710000
     27 O3           5.8190    -5.1780    -2.4710 oh         1 JTM      -0.725000
     28 O2           4.4320    -4.6060     1.3800 os         1 JTM      -0.448000
     29 O6           1.9070    -3.4260     1.8020 oh         1 JTM      -0.712000
     30 O4           3.6580    -6.1610    -0.8720 os         1 JTM      -0.451000
     31 CAT          3.3860    -6.8630    -2.0660 c3         1 JTM       0.213900
     32 CAU          2.4200    -7.9720    -1.7580 ca         1 JTM      -0.088300
     33 CAV          1.1810    -7.6910    -1.1850 ca         1 JTM      -0.085500
     34 CAW          0.2770    -8.7010    -0.9040 ca         1 JTM      -0.106500
     35 CAX          0.6180   -10.0140    -1.2000 ca         1 JTM       0.124000
     36 CL          -0.5080   -11.2850    -0.8490 cl         1 JTM      -0.204000
     37 CAY          1.8420   -10.3230    -1.7670 ca         1 JTM      -0.106500
     38 CAZ          2.7360    -9.2950    -2.0380 ca         1 JTM      -0.085500
     39 NAO          4.6450    -0.6470     1.4290 ns         1 JTM      -0.501900
     40 CBE          3.5160    -0.1510     1.9660 c          1 JTM       0.616100
     41 OBF          3.4260     0.1740     3.1410 o          1 JTM      -0.601100
     42 CBU          2.3620    -0.0130     0.9950 c3         1 JTM      -0.150400
     43 CBV          1.0110     0.1000     1.6820 c3         1 JTM      -0.065400
     44 CBW         -0.1470     0.1430     0.6940 c3         1 JTM      -0.075400
     45 CBX         -1.4950     0.2960     1.3870 c3         1 JTM      -0.075400
     46 CBY         -2.6780     0.3300     0.4280 c3         1 JTM      -0.073400
     47 CBZ         -4.0130     0.5010     1.1420 c3         1 JTM      -0.075400
     48 CCA         -5.2100     0.5410     0.2000 c3         1 JTM      -0.073400
     49 CCB         -6.5350     0.7200     0.9300 c3         1 JTM      -0.074400
     50 CCC         -7.7410     0.7650    -0.0000 c3         1 JTM      -0.074400
     51 CCD         -9.0600     0.9450     0.7410 c3         1 JTM      -0.074400
     52 CCE        -10.2720     0.9940    -0.1820 c3         1 JTM      -0.074400
     53 CCF        -11.5870     1.1720     0.5650 c3         1 JTM      -0.074400
     54 CCG        -12.8020     1.2210    -0.3530 c3         1 JTM      -0.074400
     55 CCH        -14.1160     1.3950     0.3980 c3         1 JTM      -0.074400
     56 CCI        -15.3330     1.4400    -0.5180 c3         1 JTM      -0.074400
     57 CCJ        -16.6470     1.6090     0.2350 c3         1 JTM      -0.074400
     58 CCK        -17.8640     1.6490    -0.6810 c3         1 JTM      -0.074400
     59 CCL        -19.1800     1.8100     0.0710 c3         1 JTM      -0.074400
     60 CCM        -20.3960     1.8440    -0.8460 c3         1 JTM      -0.074400
     61 CCN        -21.7130     1.9960    -0.0950 c3         1 JTM      -0.074400
     62 CCO        -22.9290     2.0220    -1.0140 c3         1 JTM      -0.074400
     63 CCP        -24.2480     2.1640    -0.2660 c3         1 JTM      -0.074400
     64 CCQ        -25.4610     2.1840    -1.1880 c3         1 JTM      -0.075400
     65 CCR        -26.7850     2.3140    -0.4450 c3         1 JTM      -0.074400
     66 CCS        -27.9860     2.3290    -1.3800 c3         1 JTM      -0.088100
     67 H1           6.2790    -4.8940     2.0710 h2         1 JTM       0.070700
     68 H2           1.5610    -4.0310    -0.1580 h1         1 JTM       0.034200
     69 H3           1.9760    -5.3300     0.9650 h1         1 JTM       0.034200
     70 H4           3.7990    -3.0360     0.1790 h1         1 JTM       0.052700
     71 H5           3.3810    -4.3320    -1.7940 h1         1 JTM       0.050700
     72 H6           5.5880    -3.4560    -1.3550 h1         1 JTM       0.054700
     73 H7           6.1210    -6.1250     0.0120 h1         1 JTM       0.069700
     74 H8          16.9240    16.0160    -0.7670 hc         1 JTM       0.031367
     75 H9          18.0270    16.0230    -2.1390 hc         1 JTM       0.031367
     76 H10         16.2890    16.1210    -2.4050 hc         1 JTM       0.031367
     77 H11         17.1440    13.8090    -2.8860 hc         1 JTM       0.036700
     78 H12         17.7860    13.6990    -1.2640 hc         1 JTM       0.036700
     79 H13         15.4750    13.9300    -0.3320 hc         1 JTM       0.036700
     80 H14         14.8310    14.0400    -1.9550 hc         1 JTM       0.036700
     81 H15         15.7020    11.7480    -2.4580 hc         1 JTM       0.036700
     82 H16         16.3530    11.6370    -0.8370 hc         1 JTM       0.036700
     83 H17         14.0470    11.8730     0.1070 hc         1 JTM       0.036700
     84 H18         13.3940    11.9880    -1.5120 hc         1 JTM       0.036700
     85 H19         14.2540     9.6950    -2.0250 hc         1 JTM       0.037200
     86 H20         14.9150     9.5790    -0.4090 hc         1 JTM       0.037200
     87 H21         12.6160     9.8190     0.5510 hc         1 JTM       0.037700
     88 H22         11.9520     9.9420    -1.0630 hc         1 JTM       0.037700
     89 H23         12.7960     7.6480    -1.5910 hc         1 JTM       0.037200
     90 H24         13.4750     7.5240     0.0170 hc         1 JTM       0.037200
     91 H25         11.1930     7.7630     1.0080 hc         1 JTM       0.037700
     92 H26         10.5050     7.9020    -0.5950 hc         1 JTM       0.037700
     93 H27         11.3160     5.6110    -1.1570 hc         1 JTM       0.036700
     94 H28         12.0400     5.4680     0.4290 hc         1 JTM       0.036700
     95 H29          9.7970     5.6980     1.4920 hc         1 JTM       0.038200
     96 H30          9.0550     5.8710    -0.0830 hc         1 JTM       0.038200
     97 H31          9.8000     3.5880    -0.7160 hc         1 JTM       0.036700
     98 H32         10.6220     3.4080     0.8180 hc         1 JTM       0.036700
     99 H33          8.4720     3.6090     2.0340 hc         1 JTM       0.044700
    100 H34          7.6160     3.8560     0.5270 hc         1 JTM       0.044700
    101 H35          8.2290     1.5860    -0.2480 hc         1 JTM       0.048700
    102 H36          9.2540     1.3570     1.1510 hc         1 JTM       0.048700
    103 H37          7.2950     1.4830     2.6560 h1         1 JTM       0.069700
    104 H38          5.7770     1.7500     0.3080 ho         1 JTM       0.434000
    105 H39          7.0230    -0.5350     0.3880 h1         1 JTM       0.078700
    106 H40          8.4280    -0.5670     2.8260 ho         1 JTM       0.438000
    107 H41          5.7440    -0.4120     3.1480 h1         1 JTM       0.091700
    108 H42          6.8550    -2.5960     3.0770 h1         1 JTM       0.049200
    109 H43          5.0980    -2.7110     2.9550 h1         1 JTM       0.049200
    110 H44          8.1870    -5.3730     0.1470 ho         1 JTM       0.511000
    111 H45          6.7740    -5.0970    -2.5720 ho         1 JTM       0.525000
    112 H46          0.9700    -3.4920     2.0080 ho         1 JTM       0.506000
    113 H47          2.9430    -6.1920    -2.8130 h1         1 JTM       0.044200
    114 H48          4.2980    -7.2740    -2.5070 h1         1 JTM       0.044200
    115 H49          0.9070    -6.6680    -0.9580 ha         1 JTM       0.116000
    116 H50         -0.6820    -8.4680    -0.4620 ha         1 JTM       0.129000
    117 H51          2.1040   -11.3480    -1.9890 ha         1 JTM       0.129000
    118 H52          3.6970    -9.5400    -2.4750 ha         1 JTM       0.116000
    119 H53          4.6300    -0.9260     0.4610 hn         1 JTM       0.308500
    120 H54          2.5420     0.8720     0.3740 hc         1 JTM       0.050700
    121 H55          2.3610    -0.8650     0.3100 hc         1 JTM       0.050700
    122 H56          0.8740    -0.7500     2.3560 hc         1 JTM       0.057200
    123 H57          0.9880     0.9960     2.3070 hc         1 JTM       0.057200
    124 H58         -0.0040     0.9710    -0.0090 hc         1 JTM       0.032700
    125 H59         -0.1460    -0.7720     0.0910 hc         1 JTM       0.032700
    126 H60         -1.6310    -0.5260     2.0990 hc         1 JTM       0.040200
    127 H61         -1.4900     1.2150     1.9860 hc         1 JTM       0.040200
    128 H62         -2.5420     1.1470    -0.2890 hc         1 JTM       0.036200
    129 H63         -2.6940    -0.5920    -0.1630 hc         1 JTM       0.036200
    130 H64         -4.1460    -0.3160     1.8610 hc         1 JTM       0.037700
    131 H65         -3.9900     1.4230     1.7350 hc         1 JTM       0.037700
    132 H66         -5.0780     1.3570    -0.5200 hc         1 JTM       0.037200
    133 H67         -5.2390    -0.3820    -0.3900 hc         1 JTM       0.037200
    134 H68         -6.6650    -0.0970     1.6500 hc         1 JTM       0.037200
    135 H69         -6.5010     1.6410     1.5230 hc         1 JTM       0.037200
    136 H70         -7.6130     1.5820    -0.7200 hc         1 JTM       0.036700
    137 H71         -7.7780    -0.1570    -0.5920 hc         1 JTM       0.036700
    138 H72         -9.1860     0.1280     1.4600 hc         1 JTM       0.037700
    139 H73         -9.0210     1.8660     1.3340 hc         1 JTM       0.037700
    140 H74        -10.1480     1.8120    -0.9000 hc         1 JTM       0.036700
    141 H75        -10.3120     0.0740    -0.7760 hc         1 JTM       0.036700
    142 H76        -11.7100     0.3540     1.2840 hc         1 JTM       0.037200
    143 H77        -11.5460     2.0920     1.1600 hc         1 JTM       0.037200
    144 H78        -12.6820     2.0410    -1.0700 hc         1 JTM       0.036700
    145 H79        -12.8430     0.3020    -0.9490 hc         1 JTM       0.036700
    146 H80        -14.2350     0.5760     1.1170 hc         1 JTM       0.037200
    147 H81        -14.0760     2.3140     0.9940 hc         1 JTM       0.037200
    148 H82        -15.2170     2.2620    -1.2340 hc         1 JTM       0.037200
    149 H83        -15.3710     0.5220    -1.1150 hc         1 JTM       0.037200
    150 H84        -16.7620     0.7890     0.9530 hc         1 JTM       0.037200
    151 H85        -16.6110     2.5290     0.8300 hc         1 JTM       0.037200
    152 H86        -17.7520     2.4710    -1.3970 hc         1 JTM       0.036700
    153 H87        -17.8980     0.7310    -1.2790 hc         1 JTM       0.036700
    154 H88        -19.2900     0.9900     0.7890 hc         1 JTM       0.036700
    155 H89        -19.1490     2.7300     0.6660 hc         1 JTM       0.036700
    156 H90        -20.2880     2.6670    -1.5610 hc         1 JTM       0.036700
    157 H91        -20.4240     0.9260    -1.4440 hc         1 JTM       0.036700
    158 H92        -21.8200     1.1740     0.6220 hc         1 JTM       0.037200
    159 H93        -21.6890     2.9160     0.5010 hc         1 JTM       0.037200
    160 H94        -22.8250     2.8470    -1.7280 hc         1 JTM       0.036700
    161 H95        -22.9480     1.1050    -1.6140 hc         1 JTM       0.036700
    162 H96        -24.3510     1.3400     0.4480 hc         1 JTM       0.036700
    163 H97        -24.2320     3.0820     0.3320 hc         1 JTM       0.036700
    164 H98        -25.3620     3.0120    -1.8990 hc         1 JTM       0.036700
    165 H99        -25.4740     1.2690    -1.7910 hc         1 JTM       0.036700
    166 H100       -26.8830     1.4870     0.2660 hc         1 JTM       0.036700
    167 H101       -26.7760     3.2290     0.1560 hc         1 JTM       0.036700
    168 H102       -28.9250     2.4150    -0.8320 hc         1 JTM       0.031367
    169 H103       -27.9320     3.1690    -2.0760 hc         1 JTM       0.031367
    170 H104       -28.0340     1.4140    -1.9730 hc         1 JTM       0.031367
    171 CAM          5.9990    -2.3830     2.4280 c3         1 JTM       0.144600
    172 CBH          8.4780     3.3490     0.9690 c3         1 JTM      -0.071400
@<TRIPOS>BOND
     1     1     6 1   
     2     1    25 1   
     3     1    28 1   
     4     1    67 1   
     5     2     3 1   
     6     2    29 1   
     7     2    68 1   
     8     2    69 1   
     9     3     4 1   
    10     3    28 1   
    11     3    70 1   
    12     4     5 1   
    13     4    30 1   
    14     4    71 1   
    15     5     6 1   
    16     5    27 1   
    17     5    72 1   
    18     6    26 1   
    19     6    73 1   
    20     7     8 1   
    21     7    74 1   
    22     7    75 1   
    23     7    76 1   
    24     8     9 1   
    25     8    77 1   
    26     8    78 1   
    27     9    10 1   
    28     9    79 1   
    29     9    80 1   
    30    10    11 1   
    31    10    81 1   
    32    10    82 1   
    33    11    12 1   
    34    11    83 1   
    35    11    84 1   
    36    12    13 1   
    37    12    85 1   
    38    12    86 1   
    39    13    14 1   
    40    13    87 1   
    41    13    88 1   
    42    14    15 1   
    43    14    89 1   
    44    14    90 1   
    45    15    16 1   
    46    15    91 1   
    47    15    92 1   
    48    16    17 1   
    49    16    93 1   
    50    16    94 1   
    51    17    18 1   
    52    17    95 1   
    53    17    96 1   
    54    18    97 1   
    55    18    98 1   
    56    18   172 1   
    57    19    20 1   
    58    19   101 1   
    59    19   102 1   
    60    19   172 1   
    61    20    21 1   
    62    20    22 1   
    63    20   103 1   
    64    21   104 1   
    65    22    23 1   
    66    22    24 1   
    67    22   105 1   
    68    23   106 1   
    69    24    39 1   
    70    24   107 1   
    71    24   171 1   
    72    25   171 1   
    73    26   110 1   
    74    27   111 1   
    75    29   112 1   
    76    30    31 1   
    77    31    32 1   
    78    31   113 1   
    79    31   114 1   
    80    32    33 ar  
    81    32    38 ar  
    82    33    34 ar  
    83    33   115 1   
    84    34    35 ar  
    85    34   116 1   
    86    35    36 1   
    87    35    37 ar  
    88    37    38 ar  
    89    37   117 1   
    90    38   118 1   
    91    39    40 1   
    92    39   119 1   
    93    40    41 2   
    94    40    42 1   
    95    42    43 1   
    96    42   120 1   
    97    42   121 1   
    98    43    44 1   
    99    43   122 1   
   100    43   123 1   
   101    44    45 1   
   102    44   124 1   
   103    44   125 1   
   104    45    46 1   
   105    45   126 1   
   106    45   127 1   
   107    46    47 1   
   108    46   128 1   
   109    46   129 1   
   110    47    48 1   
   111    47   130 1   
   112    47   131 1   
   113    48    49 1   
   114    48   132 1   
   115    48   133 1   
   116    49    50 1   
   117    49   134 1   
   118    49   135 1   
   119    50    51 1   
   120    50   136 1   
   121    50   137 1   
   122    51    52 1   
   123    51   138 1   
   124    51   139 1   
   125    52    53 1   
   126    52   140 1   
   127    52   141 1   
   128    53    54 1   
   129    53   142 1   
   130    53   143 1   
   131    54    55 1   
   132    54   144 1   
   133    54   145 1   
   134    55    56 1   
   135    55   146 1   
   136    55   147 1   
   137    56    57 1   
   138    56   148 1   
   139    56   149 1   
   140    57    58 1   
   141    57   150 1   
   142    57   151 1   
   143    58    59 1   
   144    58   152 1   
   145    58   153 1   
   146    59    60 1   
   147    59   154 1   
   148    59   155 1   
   149    60    61 1   
   150    60   156 1   
   151    60   157 1   
   152    61    62 1   
   153    61   158 1   
   154    61   159 1   
   155    62    63 1   
   156    62   160 1   
   157    62   161 1   
   158    63    64 1   
   159    63   162 1   
   160    63   163 1   
   161    64    65 1   
   162    64   164 1   
   163    64   165 1   
   164    65    66 1   
   165    65   166 1   
   166    65   167 1   
   167    66   168 1   
   168    66   169 1   
   169    66   170 1   
   170    99   172 1   
   171   100   172 1   
   172   108   171 1   
   173   109   171 1   
@<TRIPOS>SUBSTRUCTURE
     1 JTM         1 TEMP              0 ****  ****    0 ROOT
