@<TRIPOS>MOLECULE
JTN
   31    33     1     0     0
SMALL
No Charge or Current Charge


@<TRIPOS>ATOM
      1 CAP         -4.9930     0.7240     1.7780 cx         1 JTN      -0.119900
      2 CAT         -5.0730    -0.7140     1.3320 cx         1 JTN      -0.119900
      3 CAQ         -4.3220     0.2980     0.4830 cx         1 JTN      -0.213700
      4 CAR         -4.9600     0.7380    -0.8240 c          1 JTN       0.748000
      5 OAS         -5.2410    -0.1230    -1.6460 o          1 JTN      -0.715000
      6 OAU         -5.1410     1.9330    -1.0040 o          1 JTN      -0.715000
      7 CAN         -2.8240     0.2460     0.3860 ca         1 JTN       0.082700
      8 CAO         -2.1780    -0.9380    -0.0070 ca         1 JTN      -0.147000
      9 CAK         -0.7790    -0.9880    -0.0960 ca         1 JTN       0.180000
     10 FAL         -0.2050    -2.1410    -0.5070 f          1 JTN      -0.196000
     11 CAM         -2.0520     1.3830     0.6810 ca         1 JTN      -0.117000
     12 CAI         -0.6510     1.3370     0.5920 ca         1 JTN      -0.077000
     13 CAJ          0.0180     0.1480     0.2070 cp         1 JTN      -0.141000
     14 CAG          1.5110     0.1210     0.1200 cp         1 JTN       0.027000
     15 CAH          2.2640    -0.9570     0.6480 ca         1 JTN      -0.093500
     16 CAD          3.6660    -0.9670     0.5700 ca         1 JTN       0.122500
     17 Cl1          4.5720    -2.3200     1.2350 cl         1 JTN      -0.214500
     18 CAC          4.3480     0.1000    -0.0330 ca         1 JTN      -0.116000
     19 CAB          3.6210     1.1800    -0.5550 ca         1 JTN       0.122500
     20 Cl2          4.4700     2.5230    -1.3100 cl         1 JTN      -0.214500
     21 CAF          2.2190     1.1930    -0.4780 ca         1 JTN      -0.093500
     22 H1          -5.8990     1.3220     1.7130 hc         1 JTN       0.059950
     23 H2          -4.3600     0.9520     2.6320 hc         1 JTN       0.059950
     24 H3          -4.4930    -1.4460     1.8890 hc         1 JTN       0.059950
     25 H4          -6.0320    -1.0770     0.9690 hc         1 JTN       0.059950
     26 H6          -2.7620    -1.8200    -0.2500 ha         1 JTN       0.134000
     27 H7          -2.5420     2.3060     0.9820 ha         1 JTN       0.122000
     28 H8          -0.0770     2.2280     0.8350 ha         1 JTN       0.100000
     29 H9           1.7570    -1.7870     1.1330 ha         1 JTN       0.141000
     30 H10          5.4320     0.0910    -0.0930 ha         1 JTN       0.133000
     31 H11          1.6740     2.0360    -0.8940 ha         1 JTN       0.141000
@<TRIPOS>BOND
     1     1     2 1   
     2     1     3 1   
     3     1    22 1   
     4     1    23 1   
     5     2     3 1   
     6     2    24 1   
     7     2    25 1   
     8     3     4 1   
     9     3     7 1   
    10     4     5 1   
    11     4     6 1   
    12     7     8 ar  
    13     7    11 ar  
    14     8     9 ar  
    15     8    26 1   
    16     9    10 1   
    17     9    13 ar  
    18    11    12 ar  
    19    11    27 1   
    20    12    13 ar  
    21    12    28 1   
    22    13    14 1   
    23    14    15 ar  
    24    14    21 ar  
    25    15    16 ar  
    26    15    29 1   
    27    16    17 1   
    28    16    18 ar  
    29    18    19 ar  
    30    18    30 1   
    31    19    20 1   
    32    19    21 ar  
    33    21    31 1   
@<TRIPOS>SUBSTRUCTURE
     1 JTN         1 TEMP              0 ****  ****    0 ROOT
