@<TRIPOS>MOLECULE
JTN
   31    33     1     0     0
SMALL
abcg2


@<TRIPOS>ATOM
      1 CAP         -4.9050     0.7470     1.7770 cx         1 JTN      -0.119900
      2 CAT         -5.0130    -0.6640     1.3090 cx         1 JTN      -0.119900
      3 CAQ         -4.2850     0.3470     0.4650 cx         1 JTN      -0.213700
      4 CAR         -4.9820     0.8240    -0.8130 c          1 JTN       0.748000
      5 OAS         -4.2420     1.0860    -1.7790 o          1 JTN      -0.715000
      6 OAU         -6.2240     0.9080    -0.7760 o          1 JTN      -0.715000
      7 CAN         -2.8010     0.2690     0.3880 ca         1 JTN       0.082700
      8 CAO         -2.1700    -0.9090     0.0040 ca         1 JTN      -0.147000
      9 CAK         -0.7940    -0.9580    -0.0740 ca         1 JTN       0.180000
     10 FAL         -0.2210    -2.1110    -0.4620 f          1 JTN      -0.196000
     11 CAM         -2.0080     1.3780     0.6750 ca         1 JTN      -0.117000
     12 CAI         -0.6290     1.3090     0.5850 ca         1 JTN      -0.077000
     13 CAJ          0.0190     0.1310     0.2110 cp         1 JTN      -0.141000
     14 CAG          1.4910     0.0730     0.1160 cp         1 JTN       0.027000
     15 CAH          2.2180    -0.9450     0.7310 ca         1 JTN      -0.093500
     16 CAD          3.6000    -0.9410     0.6450 ca         1 JTN       0.122500
     17 CL1          4.4950    -2.2010     1.4220 cl         1 JTN      -0.214500
     18 CAC          4.2920     0.0450    -0.0400 ca         1 JTN      -0.116000
     19 CAB          3.5510     1.0490    -0.6420 ca         1 JTN       0.122500
     20 CL2          4.3790     2.2980    -1.5060 cl         1 JTN      -0.214500
     21 CAF          2.1680     1.0760    -0.5760 ca         1 JTN      -0.093500
     22 H1          -5.7890     1.3710     1.7400 hc         1 JTN       0.059950
     23 H2          -4.2390     0.9540     2.6050 hc         1 JTN       0.059950
     24 H3          -4.4190    -1.4120     1.8200 hc         1 JTN       0.059950
     25 H4          -5.9710    -1.0160     0.9510 hc         1 JTN       0.059950
     26 H6          -2.7500    -1.7920    -0.2360 ha         1 JTN       0.134000
     27 H7          -2.4740     2.3040     0.9870 ha         1 JTN       0.122000
     28 H8          -0.0340     2.1810     0.8310 ha         1 JTN       0.100000
     29 H9           1.7180    -1.7170     1.2970 ha         1 JTN       0.141000
     30 H10          5.3710     0.0330    -0.1000 ha         1 JTN       0.133000
     31 H11          1.6170     1.8650    -1.0680 ha         1 JTN       0.141000
@<TRIPOS>BOND
     1     1     2 1   
     2     1     3 1   
     3     1    22 1   
     4     1    23 1   
     5     2     3 1   
     6     2    24 1   
     7     2    25 1   
     8     3     4 1   
     9     3     7 1   
    10     4     5 1   
    11     4     6 1   
    12     7     8 ar  
    13     7    11 ar  
    14     8     9 ar  
    15     8    26 1   
    16     9    10 1   
    17     9    13 ar  
    18    11    12 ar  
    19    11    27 1   
    20    12    13 ar  
    21    12    28 1   
    22    13    14 1   
    23    14    15 ar  
    24    14    21 ar  
    25    15    16 ar  
    26    15    29 1   
    27    16    17 1   
    28    16    18 ar  
    29    18    19 ar  
    30    18    30 1   
    31    19    20 1   
    32    19    21 ar  
    33    21    31 1   
@<TRIPOS>SUBSTRUCTURE
     1 JTN         1 TEMP              0 ****  ****    0 ROOT
