@<TRIPOS>MOLECULE
JTO
   33    35     1     0     0
SMALL
bcc


@<TRIPOS>ATOM
      1 C2         -18.3200    84.6720    30.2470 c          1 JTO       0.741100
      2 C4         -18.1310    86.5730    31.7700 cc         1 JTO       0.444800
      3 C6         -19.9670    86.4860    30.5090 cd         1 JTO       0.158400
      4 C12        -20.3730    91.7420    28.1420 ca         1 JTO      -0.101000
      5 C13        -21.5270    91.8830    28.9070 ca         1 JTO      -0.236000
      6 C14        -22.0810    90.7790    29.5490 ca         1 JTO       0.207100
      7 C16        -23.8940    92.0280    30.4980 c3         1 JTO       0.017200
      8 C21        -21.4930    85.8410    28.9990 cc         1 JTO      -0.073300
      9 C23        -19.5560    85.3010    29.9130 cc         1 JTO      -0.265900
     10 O20        -24.9510    91.1490    32.8420 o          1 JTO      -0.916167
     11 P17        -25.4450    91.7580    31.5270 p5         1 JTO       1.124700
     12 O18        -25.9680    93.1940    31.6480 o          1 JTO      -0.916167
     13 O19        -26.3240    90.8320    30.6820 o          1 JTO      -0.916167
     14 O15        -23.1890    90.7960    30.2970 os         1 JTO      -0.230900
     15 C11        -19.7640    90.5060    28.0120 ca         1 JTO      -0.231000
     16 C10        -20.3080    89.4000    28.6570 ca         1 JTO      -0.102000
     17 C9         -21.4530    89.5280    29.4240 ca         1 JTO      -0.062100
     18 C7         -21.2090    86.8350    29.9160 cd         1 JTO      -0.074100
     19 N22        -20.5020    84.9280    29.0060 na         1 JTO      -0.135100
     20 O1         -17.8480    83.6470    29.7830 o          1 JTO      -0.671500
     21 N5         -19.2440    87.1410    31.4610 nd         1 JTO      -0.517100
     22 N3         -17.6680    85.4180    31.2220 ns         1 JTO      -0.494400
     23 H1         -17.4850    87.0160    32.5170 h5         1 JTO       0.040800
     24 H2         -19.9580    92.6110    27.6490 ha         1 JTO       0.095000
     25 H3         -21.9900    92.8560    28.9960 ha         1 JTO       0.145000
     26 H4         -23.2250    92.7460    30.9900 h1         1 JTO       0.004700
     27 H5         -24.1600    92.4570    29.5240 h1         1 JTO       0.004700
     28 H6         -22.3460    85.7370    28.3490 h4         1 JTO       0.180000
     29 H9         -18.8680    90.3920    27.4160 ha         1 JTO       0.093000
     30 H10        -19.8320    88.4330    28.5550 ha         1 JTO       0.104000
     31 H11        -20.4700    84.0990    28.4330 hn         1 JTO       0.298700
     32 H12        -16.7720    85.0700    31.5410 hn         1 JTO       0.311500
     33 S8         -22.2270    88.1940    30.3060 ss         1 JTO      -0.024800
@<TRIPOS>BOND
     1     1     9 1   
     2     1    20 2   
     3     1    22 1   
     4     2    21 2   
     5     2    22 1   
     6     2    23 1   
     7     3     9 2   
     8     3    18 1   
     9     3    21 1   
    10     4     5 ar  
    11     4    15 ar  
    12     4    24 1   
    13     5     6 ar  
    14     5    25 1   
    15     6    14 1   
    16     6    17 ar  
    17     7    11 1   
    18     7    14 1   
    19     7    26 1   
    20     7    27 1   
    21     8    18 2   
    22     8    19 1   
    23     8    28 1   
    24     9    19 1   
    25    10    11 1   
    26    11    12 1   
    27    11    13 1   
    28    15    16 ar  
    29    15    29 1   
    30    16    17 ar  
    31    16    30 1   
    32    17    33 1   
    33    18    33 1   
    34    19    31 1   
    35    22    32 1   
@<TRIPOS>SUBSTRUCTURE
     1 JTO         1 TEMP              0 ****  ****    0 ROOT
