@<TRIPOS>MOLECULE
JTO
   33    35     1     0     0
SMALL
No Charge or Current Charge


@<TRIPOS>ATOM
      1 C2         -19.3600    84.6760    29.6010 c          1 JTO       0.598600
      2 C4         -17.6830    85.8560    30.8710 cc         1 JTO       0.444800
      3 C6         -19.7670    86.7980    30.8130 cd         1 JTO       0.158400
      4 C12        -20.0290    91.6500    28.1750 ca         1 JTO      -0.083000
      5 C13        -21.3430    91.5190    28.6570 ca         1 JTO      -0.218000
      6 C14        -21.6020    90.7640    29.8240 ca         1 JTO       0.207100
      7 C16        -24.0430    91.1950    29.6960 c3         1 JTO      -0.117400
      8 C21        -21.9610    87.2370    30.4140 cc         1 JTO      -0.106000
      9 C23        -20.2140    85.7740    30.0290 cc         1 JTO      -0.316600
     10 O20        -25.5510    91.3530    32.0050 o          1 JTO      -0.916167
     11 P17        -25.6300    90.8080    30.6160 p5         1 JTO       1.282500
     12 O18        -26.7710    91.4470    29.8960 o          1 JTO      -0.916167
     13 O19        -25.8360    89.3290    30.6620 o          1 JTO      -0.916167
     14 O15        -22.8810    90.6130    30.3320 os         1 JTO      -0.254100
     15 C11        -18.9690    91.0310    28.8540 ca         1 JTO      -0.213000
     16 C10        -19.2170    90.2790    30.0130 ca         1 JTO      -0.084000
     17 C9         -20.5310    90.1420    30.4980 ca         1 JTO      -0.189000
     18 C7         -20.8290    87.6810    31.0400 cd         1 JTO      -0.201000
     19 N22        -21.5730    86.0460    29.7800 na         1 JTO      -0.084000
     20 O1         -19.7100    83.7400    28.9000 o          1 JTO      -0.596000
     21 N5         -18.4560    86.8690    31.2720 nd         1 JTO      -0.517100
     22 N3         -18.1020    84.8130    30.0780 ns         1 JTO      -0.427400
     23 H1         -16.6390    85.7760    31.1470 h5         1 JTO       0.040800
     24 H2         -19.8340    92.2320    27.2770 ha         1 JTO       0.077000
     25 H3         -22.1470    92.0080    28.1160 ha         1 JTO       0.127000
     26 H4         -23.9460    92.2870    29.6490 h1         1 JTO       0.004700
     27 H5         -24.1510    90.8120    28.6740 h1         1 JTO       0.004700
     28 H6         -22.9640    87.6450    30.3590 h4         1 JTO       0.162000
     29 H9         -17.9530    91.1330    28.4810 ha         1 JTO       0.075000
     30 H10        -18.3910    89.8000    30.5340 ha         1 JTO       0.086000
     31 H11        -22.1890    85.4620    29.2200 hn         1 JTO       0.349000
     32 H12        -17.4440    84.0900    29.8250 hn         1 JTO       0.311500
     33 S8         -20.8330    89.1790    31.9790 ss         1 JTO       0.229000
@<TRIPOS>BOND
     1     1     9 1   
     2     1    20 2   
     3     1    22 1   
     4     2    21 2   
     5     2    22 1   
     6     2    23 1   
     7     3     9 2   
     8     3    18 1   
     9     3    21 1   
    10     4     5 ar  
    11     4    15 ar  
    12     4    24 1   
    13     5     6 ar  
    14     5    25 1   
    15     6    14 1   
    16     6    17 ar  
    17     7    11 1   
    18     7    14 1   
    19     7    26 1   
    20     7    27 1   
    21     8    18 2   
    22     8    19 1   
    23     8    28 1   
    24     9    19 1   
    25    10    11 1   
    26    11    12 1   
    27    11    13 1   
    28    15    16 ar  
    29    15    29 1   
    30    16    17 ar  
    31    16    30 1   
    32    17    33 1   
    33    18    33 1   
    34    19    31 1   
    35    22    32 1   
@<TRIPOS>SUBSTRUCTURE
     1 JTO         1 TEMP              0 ****  ****    0 ROOT
