@<TRIPOS>MOLECULE
JTP
   62    66     1     0     0
SMALL
No Charge or Current Charge


@<TRIPOS>ATOM
      1 C1          11.2510     1.6860    -5.3150 c3         1 JTP      -0.076100
      2 C2          10.3150     1.3970    -6.5210 c3         1 JTP      -0.026600
      3 N3           8.9740     0.9600    -6.0390 ns         1 JTP      -0.467900
      4 C4           8.0660     1.6530    -5.2580 c          1 JTP       0.600700
      5 C5           6.7720     0.9240    -4.9340 ca         1 JTP      -0.107600
      6 C6           5.7900     1.5750    -4.1350 ca         1 JTP      -0.098000
      7 C7           4.5750     0.9430    -3.8050 ca         1 JTP      -0.090000
      8 C8           4.3520    -0.3540    -4.2860 ca         1 JTP      -0.088800
      9 C9           5.2840    -0.9980    -5.0630 ca         1 JTP      -0.040200
     10 N10          4.7850    -2.2510    -5.3910 na         1 JTP      -0.078700
     11 C11          3.5050    -2.4100    -4.8630 cc         1 JTP      -0.009300
     12 C12          2.7220    -3.6410    -4.9520 ca         1 JTP      -0.052800
     13 C13          3.3850    -4.8820    -4.8160 ca         1 JTP       0.118100
     14 C14          2.6650    -6.0850    -4.9070 ca         1 JTP      -0.128000
     15 C15          1.2880    -6.0620    -5.1840 ca         1 JTP      -0.102000
     16 C16          0.6310    -4.8330    -5.3650 ca         1 JTP      -0.127000
     17 C17          1.3450    -3.6270    -5.2550 ca         1 JTP      -0.083000
     18 O18          4.7290    -4.9270    -4.5080 os         1 JTP      -0.359100
     19 C19          5.7520    -4.6040    -5.4850 c3         1 JTP       0.151600
     20 C20          5.4830    -3.2570    -6.2100 c3         1 JTP       0.039600
     21 C21          3.2240    -1.2630    -4.1180 cd         1 JTP      -0.113400
     22 C22          2.0000    -1.0990    -3.2230 c6         1 JTP       0.016500
     23 C23          2.4020    -0.8690    -1.7390 c6         1 JTP      -0.069900
     24 C24          1.1540    -0.7010    -0.8380 c6         1 JTP      -0.073900
     25 C25          0.2410     0.4400    -1.3530 c6         1 JTP      -0.073400
     26 C26         -0.1670     0.2090    -2.8290 c6         1 JTP      -0.073900
     27 C27          1.0780     0.0400    -3.7360 c6         1 JTP      -0.069900
     28 C28          6.5050    -0.3920    -5.4060 ca         1 JTP      -0.103000
     29 O29          8.2860     2.7870    -4.8490 o          1 JTP      -0.658100
     30 C30         10.9260     0.2150    -7.3760 c          1 JTP       0.718000
     31 O31         12.0340     0.3550    -7.8770 o          1 JTP      -0.721500
     32 O32         10.2650    -0.8100    -7.5110 o          1 JTP      -0.721500
     33 C33         10.1780     2.6560    -7.4220 c3         1 JTP      -0.076100
     34 H11         12.2590     1.9520    -5.6570 hc         1 JTP       0.028867
     35 H12         10.8830     2.5180    -4.7050 hc         1 JTP       0.028867
     36 H13         11.3350     0.8020    -4.6710 hc         1 JTP       0.028867
     37 H331        11.1520     2.9530    -7.8300 hc         1 JTP       0.028867
     38 H332         9.7820     3.5130    -6.8650 hc         1 JTP       0.028867
     39 H333         9.5050     2.4560    -8.2650 hc         1 JTP       0.028867
     40 HN3          8.6950     0.0290    -6.3260 hn         1 JTP       0.347500
     41 H6           5.9700     2.5830    -3.7660 ha         1 JTP       0.130000
     42 H7           3.8380     1.4600    -3.1990 ha         1 JTP       0.106000
     43 H28          7.2200    -0.9310    -6.0190 ha         1 JTP       0.135000
     44 H201         6.4310    -2.8590    -6.5870 h1         1 JTP       0.070200
     45 H202         4.8520    -3.4600    -7.0840 h1         1 JTP       0.070200
     46 H191         5.8330    -5.3990    -6.2370 h1         1 JTP       0.064200
     47 H192         6.7230    -4.5360    -4.9780 h1         1 JTP       0.064200
     48 H14          3.1780    -7.0340    -4.7680 ha         1 JTP       0.122000
     49 H15          0.7320    -6.9940    -5.2630 ha         1 JTP       0.108000
     50 H16         -0.4330    -4.8150    -5.5920 ha         1 JTP       0.110000
     51 H17          0.8300    -2.6830    -5.4150 ha         1 JTP       0.122000
     52 H22          1.4110    -2.0230    -3.2280 hc         1 JTP       0.043700
     53 H271         0.7580    -0.1750    -4.7640 hc         1 JTP       0.045200
     54 H272         1.6290     0.9880    -3.7770 hc         1 JTP       0.045200
     55 H261        -0.8010    -0.6860    -2.9020 hc         1 JTP       0.032200
     56 H262        -0.7750     1.0520    -3.1840 hc         1 JTP       0.032200
     57 H251         0.7640     1.4020    -1.2600 hc         1 JTP       0.033700
     58 H252        -0.6570     0.5100    -0.7240 hc         1 JTP       0.033700
     59 H241         1.4650    -0.4920     0.1940 hc         1 JTP       0.032200
     60 H242         0.5880    -1.6430    -0.8090 hc         1 JTP       0.032200
     61 H231         3.0380     0.0190    -1.6410 hc         1 JTP       0.045200
     62 H232         3.0020    -1.7180    -1.3840 hc         1 JTP       0.045200
@<TRIPOS>BOND
     1     1     2 1   
     2     1    34 1   
     3     1    35 1   
     4     1    36 1   
     5     2     3 1   
     6     2    30 1   
     7     2    33 1   
     8     3     4 1   
     9     3    40 1   
    10     4     5 1   
    11     4    29 2   
    12     5     6 ar  
    13     5    28 ar  
    14     6     7 ar  
    15     6    41 1   
    16     7     8 ar  
    17     7    42 1   
    18     8     9 ar  
    19     8    21 1   
    20     9    10 1   
    21     9    28 ar  
    22    10    11 1   
    23    10    20 1   
    24    11    12 1   
    25    11    21 2   
    26    12    13 ar  
    27    12    17 ar  
    28    13    14 ar  
    29    13    18 1   
    30    14    15 ar  
    31    14    48 1   
    32    15    16 ar  
    33    15    49 1   
    34    16    17 ar  
    35    16    50 1   
    36    17    51 1   
    37    18    19 1   
    38    19    20 1   
    39    19    46 1   
    40    19    47 1   
    41    20    44 1   
    42    20    45 1   
    43    21    22 1   
    44    22    23 1   
    45    22    27 1   
    46    22    52 1   
    47    23    24 1   
    48    23    61 1   
    49    23    62 1   
    50    24    25 1   
    51    24    59 1   
    52    24    60 1   
    53    25    26 1   
    54    25    57 1   
    55    25    58 1   
    56    26    27 1   
    57    26    55 1   
    58    26    56 1   
    59    27    53 1   
    60    27    54 1   
    61    28    43 1   
    62    30    31 1   
    63    30    32 1   
    64    33    37 1   
    65    33    38 1   
    66    33    39 1   
@<TRIPOS>SUBSTRUCTURE
     1 JTP         1 TEMP              0 ****  ****    0 ROOT
