@<TRIPOS>MOLECULE
JTP
   62    66     1     0     0
SMALL
bcc


@<TRIPOS>ATOM
      1 C1          11.0520     2.0680    -5.2790 c3         1 JTP      -0.076100
      2 C2          10.2610     1.3050    -6.3450 c3         1 JTP      -0.026600
      3 N3           8.9670     0.8750    -5.8380 ns         1 JTP      -0.534900
      4 C4           7.9400     1.6340    -5.4490 c          1 JTP       0.667700
      5 C5           6.7020     0.8890    -5.0480 ca         1 JTP      -0.107600
      6 C6           5.8010     1.5290    -4.1750 ca         1 JTP      -0.116000
      7 C7           4.6380     0.9160    -3.7620 ca         1 JTP      -0.108000
      8 C8           4.3260    -0.3670    -4.2320 ca         1 JTP      -0.088800
      9 C9           5.2310    -0.9850    -5.1260 ca         1 JTP      -0.040200
     10 N10          4.7120    -2.1990    -5.4680 na         1 JTP      -0.049400
     11 C11          3.5110    -2.3690    -4.8170 cc         1 JTP      -0.009300
     12 C12          2.7670    -3.6110    -5.0260 ca         1 JTP      -0.052800
     13 C13          3.4470    -4.8370    -4.9940 ca         1 JTP       0.118100
     14 C14          2.7680    -6.0290    -5.1930 ca         1 JTP      -0.146000
     15 C15          1.3970    -6.0160    -5.4140 ca         1 JTP      -0.120000
     16 C16          0.7100    -4.8100    -5.4520 ca         1 JTP      -0.145000
     17 C17          1.3930    -3.6180    -5.2650 ca         1 JTP      -0.101000
     18 O18          4.7740    -4.8640    -4.6890 os         1 JTP      -0.335900
     19 C19          5.6920    -4.4330    -5.6870 c3         1 JTP       0.128400
     20 C20          5.2420    -3.1650    -6.3970 c3         1 JTP       0.010300
     21 C21          3.2330    -1.2720    -4.0360 cd         1 JTP      -0.113400
     22 C22          2.0530    -1.0890    -3.1320 c6         1 JTP       0.016500
     23 C23          2.4700    -0.8530    -1.6730 c6         1 JTP      -0.069900
     24 C24          1.2580    -0.6730    -0.7650 c6         1 JTP      -0.073900
     25 C25          0.3520     0.4490    -1.2590 c6         1 JTP      -0.073400
     26 C26         -0.0790     0.2050    -2.7010 c6         1 JTP      -0.073900
     27 C27          1.1270     0.0320    -3.6190 c6         1 JTP      -0.069900
     28 C28          6.4120    -0.3770    -5.5360 ca         1 JTP      -0.121000
     29 O29          7.9650     2.8620    -5.3990 o          1 JTP      -0.658100
     30 C30         11.0390    -0.0030    -6.6980 c          1 JTP       0.928600
     31 O31         12.1580     0.1500    -7.2100 o          1 JTP      -0.826800
     32 O32         10.4770    -1.0880    -6.4320 o          1 JTP      -0.826800
     33 C33         10.1080     2.1560    -7.6060 c3         1 JTP      -0.076100
     34 H11         12.0450     2.3130    -5.6540 hc         1 JTP       0.028867
     35 H12         10.5500     2.9980    -5.0130 hc         1 JTP       0.028867
     36 H13         11.1660     1.4720    -4.3720 hc         1 JTP       0.028867
     37 H331        11.0890     2.4050    -8.0070 hc         1 JTP       0.028867
     38 H332         9.5850     3.0860    -7.3900 hc         1 JTP       0.028867
     39 H333         9.5510     1.6210    -8.3780 hc         1 JTP       0.028867
     40 HN3          8.9180    -0.1350    -5.7710 hn         1 JTP       0.347500
     41 H6           6.0330     2.5220    -3.8170 ha         1 JTP       0.148000
     42 H7           3.9750     1.4400    -3.0860 ha         1 JTP       0.124000
     43 H28          7.0680    -0.8760    -6.2380 ha         1 JTP       0.153000
     44 H201         6.0910    -2.7390    -6.9290 h1         1 JTP       0.070200
     45 H202         4.4840    -3.3860    -7.1510 h1         1 JTP       0.070200
     46 H191         5.8520    -5.2180    -6.4340 h1         1 JTP       0.064200
     47 H192         6.6310    -4.2640    -5.1620 h1         1 JTP       0.064200
     48 H14          3.3120    -6.9650    -5.1560 ha         1 JTP       0.140000
     49 H15          0.8700    -6.9480    -5.5660 ha         1 JTP       0.126000
     50 H16         -0.3570    -4.7960    -5.6330 ha         1 JTP       0.128000
     51 H17          0.8580    -2.6790    -5.3250 ha         1 JTP       0.140000
     52 H22          1.4740    -2.0190    -3.1440 hc         1 JTP       0.043700
     53 H271         0.7970    -0.1820    -4.6390 hc         1 JTP       0.045200
     54 H272         1.6850     0.9730    -3.6670 hc         1 JTP       0.045200
     55 H261        -0.6980    -0.6980    -2.7460 hc         1 JTP       0.032200
     56 H262        -0.7040     1.0270    -3.0580 hc         1 JTP       0.032200
     57 H251         0.8870     1.4030    -1.1980 hc         1 JTP       0.033700
     58 H252        -0.5230     0.5410    -0.6110 hc         1 JTP       0.033700
     59 H241         1.5880    -0.4750     0.2580 hc         1 JTP       0.032200
     60 H242         0.6880    -1.6090    -0.7310 hc         1 JTP       0.032200
     61 H231         3.1040     0.0360    -1.6060 hc         1 JTP       0.045200
     62 H232         3.0780    -1.6930    -1.3280 hc         1 JTP       0.045200
@<TRIPOS>BOND
     1     1     2 1   
     2     1    34 1   
     3     1    35 1   
     4     1    36 1   
     5     2     3 1   
     6     2    30 1   
     7     2    33 1   
     8     3     4 1   
     9     3    40 1   
    10     4     5 1   
    11     4    29 2   
    12     5     6 ar  
    13     5    28 ar  
    14     6     7 ar  
    15     6    41 1   
    16     7     8 ar  
    17     7    42 1   
    18     8     9 ar  
    19     8    21 1   
    20     9    10 1   
    21     9    28 ar  
    22    10    11 1   
    23    10    20 1   
    24    11    12 1   
    25    11    21 2   
    26    12    13 ar  
    27    12    17 ar  
    28    13    14 ar  
    29    13    18 1   
    30    14    15 ar  
    31    14    48 1   
    32    15    16 ar  
    33    15    49 1   
    34    16    17 ar  
    35    16    50 1   
    36    17    51 1   
    37    18    19 1   
    38    19    20 1   
    39    19    46 1   
    40    19    47 1   
    41    20    44 1   
    42    20    45 1   
    43    21    22 1   
    44    22    23 1   
    45    22    27 1   
    46    22    52 1   
    47    23    24 1   
    48    23    61 1   
    49    23    62 1   
    50    24    25 1   
    51    24    59 1   
    52    24    60 1   
    53    25    26 1   
    54    25    57 1   
    55    25    58 1   
    56    26    27 1   
    57    26    55 1   
    58    26    56 1   
    59    27    53 1   
    60    27    54 1   
    61    28    43 1   
    62    30    31 1   
    63    30    32 1   
    64    33    37 1   
    65    33    38 1   
    66    33    39 1   
@<TRIPOS>SUBSTRUCTURE
     1 JTP         1 TEMP              0 ****  ****    0 ROOT
