@<TRIPOS>MOLECULE
JTQ
   29    31     1     0     0
SMALL
No Charge or Current Charge


@<TRIPOS>ATOM
      1 C4          22.3290   -19.2370     5.4170 ca         1 JTQ       0.381900
      2 C5          21.4830   -18.8160     4.3610 ca         1 JTQ      -0.189800
      3 C6          21.7750   -19.3680     3.0950 ca         1 JTQ       0.137900
      4 N1          22.7810   -20.2440     2.9020 nb         1 JTQ      -0.212000
      5 N3          23.3270   -20.1140     5.2390 nb         1 JTQ      -0.266000
      6 CAD         17.0940   -16.5160     3.7660 ca         1 JTQ       0.105000
      7 CAC         16.5810   -17.3890     2.7750 ca         1 JTQ       0.136000
      8 Cl2         14.9710   -17.1450     2.0950 cl         1 JTQ      -0.178000
      9 CAB         17.3390   -18.4900     2.3230 ca         1 JTQ      -0.126000
     10 CAA         18.6260   -18.7290     2.8370 ca         1 JTQ      -0.050000
     11 CAF         19.1360   -17.8350     3.7930 ca         1 JTQ      -0.085800
     12 CAE         18.3960   -16.7740     4.2690 ca         1 JTQ      -0.034200
     13 NAG         19.1490   -16.1360     5.2630 na         1 JTQ      -0.073700
     14 CAP         18.6990   -14.9440     5.9990 c3         1 JTQ       0.062900
     15 CAH         20.3760   -16.7930     5.4570 cc         1 JTQ      -0.149100
     16 CAI         20.3970   -17.8140     4.5190 cd         1 JTQ      -0.079400
     17 C2          23.5060   -20.5760     3.9870 ca         1 JTQ       0.158900
     18 NAQ         22.1540   -18.8680     6.7140 nv         1 JTQ      -1.065900
     19 H1          21.2390   -19.0630     2.1990 h4         1 JTQ       0.024100
     20 H2          16.9210   -19.1630     1.5790 ha         1 JTQ       0.133000
     21 H3          19.1830   -19.6010     2.5080 ha         1 JTQ       0.129000
     22 H4          19.4780   -14.6300     6.7040 h1         1 JTQ       0.056700
     23 H5          18.5080   -14.1230     5.2970 h1         1 JTQ       0.056700
     24 H6          17.7880   -15.1770     6.5630 h1         1 JTQ       0.056700
     25 H7          21.1130   -16.4620     6.1800 h4         1 JTQ       0.221000
     26 H8          24.3170   -21.2860     3.8360 h5         1 JTQ       0.045100
     27 H9          22.6560   -19.3990     7.4220 hn         1 JTQ       0.491000
     28 H10         21.2330   -18.5350     6.9850 hn         1 JTQ       0.491000
     29 Cl1         16.0900   -15.1680     4.3260 cl         1 JTQ      -0.178000
@<TRIPOS>BOND
     1     1     2 ar  
     2     1     5 ar  
     3     1    18 1   
     4     2     3 ar  
     5     2    16 1   
     6     3     4 ar  
     7     3    19 1   
     8     4    17 ar  
     9     5    17 ar  
    10     6     7 ar  
    11     6    12 ar  
    12     6    29 1   
    13     7     8 1   
    14     7     9 ar  
    15     9    10 ar  
    16     9    20 1   
    17    10    11 ar  
    18    10    21 1   
    19    11    12 ar  
    20    11    16 1   
    21    12    13 1   
    22    13    14 1   
    23    13    15 1   
    24    14    22 1   
    25    14    23 1   
    26    14    24 1   
    27    15    16 2   
    28    15    25 1   
    29    17    26 1   
    30    18    27 1   
    31    18    28 1   
@<TRIPOS>SUBSTRUCTURE
     1 JTQ         1 TEMP              0 ****  ****    0 ROOT
