@<TRIPOS>MOLECULE
JTQ
   29    31     1     0     0
SMALL
bcc


@<TRIPOS>ATOM
      1 C4          22.1630   -19.4050     5.4160 ca         1 JTQ       0.710200
      2 C5          21.5380   -18.7320     4.3350 ca         1 JTQ      -0.320400
      3 C6          22.0470   -19.0200     3.0870 ca         1 JTQ       0.466200
      4 N1          23.0600   -19.8610     2.8660 nb         1 JTQ      -0.738000
      5 N3          23.1810   -20.2410     5.1990 nb         1 JTQ      -0.792000
      6 CAD         17.0740   -16.5990     3.8250 ca         1 JTQ       0.013400
      7 CAC         16.5700   -17.5160     2.9200 ca         1 JTQ       0.044400
      8 CL2         14.9680   -17.3260     2.3030 cl         1 JTQ      -0.086400
      9 CAB         17.3240   -18.6110     2.4800 ca         1 JTQ      -0.144000
     10 CAA         18.6060   -18.8010     2.9400 ca         1 JTQ      -0.068000
     11 CAF         19.1450   -17.8900     3.8510 ca         1 JTQ      -0.085800
     12 CAE         18.3760   -16.7910     4.3000 ca         1 JTQ      -0.034200
     13 NAG         19.1380   -16.0870     5.1920 na         1 JTQ      -0.044400
     14 CAP         18.8070   -14.8770     5.9190 c3         1 JTQ       0.033600
     15 CAH         20.3480   -16.7090     5.3110 cc         1 JTQ      -0.099100
     16 CAI         20.4100   -17.8170     4.5120 cd         1 JTQ      -0.079400
     17 C2          23.5700   -20.4200     3.9490 ca         1 JTQ       0.684900
     18 NAQ         21.7790   -19.2170     6.6890 nv         1 JTQ      -0.955500
     19 H1          21.6180   -18.5380     2.2140 h4         1 JTQ       0.024100
     20 H2          16.8860   -19.3040     1.7760 ha         1 JTQ       0.151000
     21 H3          19.1810   -19.6510     2.5960 ha         1 JTQ       0.147000
     22 H4          19.6620   -14.6160     6.5370 h1         1 JTQ       0.056700
     23 H5          18.6080   -14.0510     5.2420 h1         1 JTQ       0.056700
     24 H6          17.9490   -15.0260     6.5700 h1         1 JTQ       0.056700
     25 H7          21.1010   -16.2920     5.9620 h4         1 JTQ       0.171000
     26 H8          24.4000   -21.1040     3.8020 h5         1 JTQ       0.045100
     27 H9          22.1330   -19.8490     7.3890 hn         1 JTQ       0.435800
     28 H10         20.8980   -18.7740     6.8890 hn         1 JTQ       0.435800
     29 CL1         16.1040   -15.2710     4.3380 cl         1 JTQ      -0.086400
@<TRIPOS>BOND
     1     1     2 ar  
     2     1     5 ar  
     3     1    18 1   
     4     2     3 ar  
     5     2    16 1   
     6     3     4 ar  
     7     3    19 1   
     8     4    17 ar  
     9     5    17 ar  
    10     6     7 ar  
    11     6    12 ar  
    12     6    29 1   
    13     7     8 1   
    14     7     9 ar  
    15     9    10 ar  
    16     9    20 1   
    17    10    11 ar  
    18    10    21 1   
    19    11    12 ar  
    20    11    16 1   
    21    12    13 1   
    22    13    14 1   
    23    13    15 1   
    24    14    22 1   
    25    14    23 1   
    26    14    24 1   
    27    15    16 2   
    28    15    25 1   
    29    17    26 1   
    30    18    27 1   
    31    18    28 1   
@<TRIPOS>SUBSTRUCTURE
     1 JTQ         1 TEMP              0 ****  ****    0 ROOT
