@<TRIPOS>MOLECULE
JTR
   49    51     1     0     0
SMALL
abcg2


@<TRIPOS>ATOM
      1 N1         -21.6260     4.1430    27.2220 nu         1 JTR      -0.914900
      2 N3         -22.2780     0.2660    26.4380 nb         1 JTR      -0.295000
      3 C4         -21.9420     7.4170    24.6340 ca         1 JTR      -0.081000
      4 C5         -21.2000     6.3150    24.2430 ca         1 JTR      -0.137000
      5 C8         -21.0800     5.2280    25.0990 ca         1 JTR      -0.067000
      6 C10        -21.8370     2.8460    26.9330 ca         1 JTR       0.429900
      7 C13        -22.5550     1.4610    23.0370 ca         1 JTR       0.400000
      8 C15        -23.0960     3.4350    21.7540 ca         1 JTR      -0.041000
      9 C17        -22.1210     1.5590    20.6420 ca         1 JTR      -0.005000
     10 C20        -19.1380    -1.9750    22.7380 c3         1 JTR      -0.079600
     11 C21        -18.8960     0.4080    21.9100 c3         1 JTR      -0.079600
     12 C1         -23.7610     7.3870    28.4240 c3         1 JTR       0.150900
     13 C11        -22.0170     0.7380    27.6440 ca         1 JTR       0.206900
     14 C12        -22.2930     1.2040    25.4830 ca         1 JTR       0.427900
     15 C14        -23.0750     2.7530    22.9590 ca         1 JTR      -0.134000
     16 C16        -22.6250     2.8460    20.5900 ca         1 JTR      -0.150000
     17 C18        -22.0770     0.8770    21.8520 ca         1 JTR      -0.300500
     18 C19        -19.7690    -0.5910    22.6500 c3         1 JTR      -0.247700
     19 C2         -22.4670     6.3470    26.7270 ca         1 JTR       0.116100
     20 C3         -22.5660     7.4420    25.8750 ca         1 JTR      -0.185000
     21 C9         -21.7190     5.2250    26.3310 ca         1 JTR       0.255000
     22 N2         -21.7860     1.9940    27.9690 nb         1 JTR      -0.301000
     23 N4         -22.5300     0.7410    24.2300 nu         1 JTR      -0.956900
     24 N5         -22.0820     2.4930    25.6770 nb         1 JTR      -0.329000
     25 O4         -21.1520    -1.1420    20.4410 o          1 JTR      -0.524000
     26 O5         -22.2260    -1.6330    22.6530 o          1 JTR      -0.524000
     27 S1         -21.3760    -0.7580    21.8340 sy         1 JTR       1.016500
     28 H1         -21.5490     4.3520    28.2070 hn         1 JTR       0.528000
     29 H2         -22.0380     8.2720    23.9780 ha         1 JTR       0.115000
     30 H3         -20.7050     6.2970    23.2810 ha         1 JTR       0.119000
     31 H4         -20.4890     4.3730    24.8050 ha         1 JTR       0.134000
     32 H5         -23.5020     4.4380    21.7290 ha         1 JTR       0.119000
     33 H6         -21.7500     1.0880    19.7430 ha         1 JTR       0.144000
     34 H7         -18.1930    -1.8880    23.2720 hc         1 JTR       0.053700
     35 H8         -19.7630    -2.6810    23.2810 hc         1 JTR       0.053700
     36 H9         -18.9240    -2.3790    21.7490 hc         1 JTR       0.053700
     37 H10        -19.3430     1.4010    21.8690 hc         1 JTR       0.053700
     38 H11        -17.9490     0.4970    22.4410 hc         1 JTR       0.053700
     39 H12        -18.6810     0.0760    20.8960 hc         1 JTR       0.053700
     40 H13        -24.1150     7.1190    29.4160 h1         1 JTR       0.043367
     41 H14        -23.1290     8.2750    28.5010 h1         1 JTR       0.043367
     42 H15        -24.6230     7.6210    27.7940 h1         1 JTR       0.043367
     43 H16        -21.9890     0.0140    28.4520 h5         1 JTR       0.053100
     44 H17        -23.4650     3.2270    23.8460 ha         1 JTR       0.147000
     45 H18        -22.6510     3.3800    19.6500 ha         1 JTR       0.122000
     46 H19        -19.9990    -0.2230    23.6540 h1         1 JTR       0.094700
     47 H20        -23.1380     8.3150    26.1590 ha         1 JTR       0.120000
     48 H21        -22.6090    -0.2660    24.1630 hn         1 JTR       0.548000
     49 O1         -23.0420     6.2690    27.9410 os         1 JTR      -0.349100
@<TRIPOS>BOND
     1     1     6 1   
     2     1    21 1   
     3     1    28 1   
     4     2    13 ar  
     5     2    14 ar  
     6     3     4 ar  
     7     3    20 ar  
     8     3    29 1   
     9     4     5 ar  
    10     4    30 1   
    11     5    21 ar  
    12     5    31 1   
    13     6    22 ar  
    14     6    24 ar  
    15     7    15 ar  
    16     7    17 ar  
    17     7    23 1   
    18     8    15 ar  
    19     8    16 ar  
    20     8    32 1   
    21     9    16 ar  
    22     9    17 ar  
    23     9    33 1   
    24    10    18 1   
    25    10    34 1   
    26    10    35 1   
    27    10    36 1   
    28    11    18 1   
    29    11    37 1   
    30    11    38 1   
    31    11    39 1   
    32    12    40 1   
    33    12    41 1   
    34    12    42 1   
    35    12    49 1   
    36    13    22 ar  
    37    13    43 1   
    38    14    23 1   
    39    14    24 ar  
    40    15    44 1   
    41    16    45 1   
    42    17    27 1   
    43    18    27 1   
    44    18    46 1   
    45    19    20 ar  
    46    19    21 ar  
    47    19    49 1   
    48    20    47 1   
    49    23    48 1   
    50    25    27 2   
    51    26    27 2   
@<TRIPOS>SUBSTRUCTURE
     1 JTR         1 TEMP              0 ****  ****    0 ROOT
