@<TRIPOS>MOLECULE
JTR
   49    51     1     0     0
SMALL
No Charge or Current Charge


@<TRIPOS>ATOM
      1 N1         -22.1660     4.1010    27.0660 nu         1 JTR      -0.914900
      2 N3         -22.6550     0.1370    26.2840 nb         1 JTR      -0.295000
      3 C4         -21.7500     7.7260    24.8990 ca         1 JTR      -0.081000
      4 C5         -21.4420     6.5080    24.2750 ca         1 JTR      -0.137000
      5 C8         -21.5730     5.2990    24.9810 ca         1 JTR      -0.067000
      6 C10        -22.3230     2.7580    26.7700 ca         1 JTR       0.429900
      7 C13        -22.6980     1.1590    22.7610 ca         1 JTR       0.400000
      8 C15        -23.4130     2.9850    21.2970 ca         1 JTR      -0.041000
      9 C17        -22.0910     1.1580    20.3950 ca         1 JTR      -0.005000
     10 C20        -18.6850    -1.6940    22.9980 c3         1 JTR      -0.079600
     11 C21        -18.8300     0.6000    21.8520 c3         1 JTR      -0.079600
     12 C1         -23.0560     7.7150    29.0020 c3         1 JTR       0.150900
     13 C11        -22.5420     0.6360    27.5320 ca         1 JTR       0.206900
     14 C12        -22.5940     1.0570    25.3100 ca         1 JTR       0.427900
     15 C14        -23.3800     2.3740    22.5600 ca         1 JTR      -0.134000
     16 C16        -22.7650     2.3750    20.2150 ca         1 JTR      -0.150000
     17 C18        -22.0610     0.5410    21.6670 ca         1 JTR      -0.300500
     18 C19        -19.5880    -0.4770    22.6720 c3         1 JTR      -0.247700
     19 C2         -22.3170     6.5310    26.9530 ca         1 JTR       0.116100
     20 C3         -22.1820     7.7420    26.2340 ca         1 JTR      -0.185000
     21 C9         -22.0250     5.2910    26.3200 ca         1 JTR       0.255000
     22 N2         -22.3760     1.9410    27.8330 nb         1 JTR      -0.301000
     23 N4         -22.6890     0.5680    24.0240 nu         1 JTR      -0.956900
     24 N5         -22.4290     2.3750    25.4900 nb         1 JTR      -0.329000
     25 O4         -20.7960    -1.5160    20.5330 o          1 JTR      -0.524000
     26 O5         -21.8590    -1.8380    22.8340 o          1 JTR      -0.524000
     27 S1         -21.1450    -0.9970    21.8620 sy         1 JTR       1.016500
     28 H1         -22.3060     4.2890    28.0600 hn         1 JTR       0.528000
     29 H2         -21.6460     8.6590    24.3490 ha         1 JTR       0.115000
     30 H3         -21.0950     6.4990    23.2440 ha         1 JTR       0.119000
     31 H4         -21.3030     4.3780    24.4790 ha         1 JTR       0.134000
     32 H5         -23.9440     3.9250    21.1580 ha         1 JTR       0.119000
     33 H6         -21.5900     0.7040    19.5410 ha         1 JTR       0.144000
     34 H7         -17.7860    -1.3750    23.5400 hc         1 JTR       0.053700
     35 H8         -19.2150    -2.4190    23.6290 hc         1 JTR       0.053700
     36 H9         -18.3670    -2.2060    22.0810 hc         1 JTR       0.053700
     37 H10        -19.4460     1.4960    21.7070 hc         1 JTR       0.053700
     38 H11        -17.9170     0.9100    22.3740 hc         1 JTR       0.053700
     39 H12        -18.5420     0.2160    20.8650 hc         1 JTR       0.053700
     40 H13        -23.3610     7.4710    30.0280 h1         1 JTR       0.043367
     41 H14        -22.1870     8.3840    29.0570 h1         1 JTR       0.043367
     42 H15        -23.8850     8.2510    28.5210 h1         1 JTR       0.043367
     43 H16        -22.5880    -0.0690    28.3610 h5         1 JTR       0.053100
     44 H17        -23.9040     2.8450    23.3850 ha         1 JTR       0.147000
     45 H18        -22.7850     2.8450    19.2340 ha         1 JTR       0.122000
     46 H19        -19.8990    -0.0220    23.6200 h1         1 JTR       0.094700
     47 H20        -22.4040     8.7010    26.6930 ha         1 JTR       0.120000
     48 H21        -22.5990    -0.4490    23.9930 hn         1 JTR       0.548000
     49 O1         -22.7340     6.5140    28.2780 os         1 JTR      -0.349100
@<TRIPOS>BOND
     1     1     6 1   
     2     1    21 1   
     3     1    28 1   
     4     2    13 ar  
     5     2    14 ar  
     6     3     4 ar  
     7     3    20 ar  
     8     3    29 1   
     9     4     5 ar  
    10     4    30 1   
    11     5    21 ar  
    12     5    31 1   
    13     6    22 ar  
    14     6    24 ar  
    15     7    15 ar  
    16     7    17 ar  
    17     7    23 1   
    18     8    15 ar  
    19     8    16 ar  
    20     8    32 1   
    21     9    16 ar  
    22     9    17 ar  
    23     9    33 1   
    24    10    18 1   
    25    10    34 1   
    26    10    35 1   
    27    10    36 1   
    28    11    18 1   
    29    11    37 1   
    30    11    38 1   
    31    11    39 1   
    32    12    40 1   
    33    12    41 1   
    34    12    42 1   
    35    12    49 1   
    36    13    22 ar  
    37    13    43 1   
    38    14    23 1   
    39    14    24 ar  
    40    15    44 1   
    41    16    45 1   
    42    17    27 1   
    43    18    27 1   
    44    18    46 1   
    45    19    20 ar  
    46    19    21 ar  
    47    19    49 1   
    48    20    47 1   
    49    23    48 1   
    50    25    27 2   
    51    26    27 2   
@<TRIPOS>SUBSTRUCTURE
     1 JTR         1 TEMP              0 ****  ****    0 ROOT
