@<TRIPOS>MOLECULE
JTS
   31    33     1     0     0
SMALL
No Charge or Current Charge


@<TRIPOS>ATOM
      1 C22          4.9710    -0.9050     0.3460 cc         1 JTS       0.435300
      2 S21          3.3220    -1.4620     0.3090 ss         1 JTS      -0.019400
      3 N23          5.1490     0.4090     0.2830 nd         1 JTS      -0.645000
      4 C24          3.9250     1.0580     0.1990 cd         1 JTS       0.371300
      5 C26          3.9320     2.5600     0.1190 c3         1 JTS      -0.128400
      6 C20          2.8330     0.2130     0.2000 cc         1 JTS      -0.333600
      7 C1           1.4210     0.6510     0.1200 c          1 JTS       0.656700
      8 O8           1.0790     1.8230     0.0440 o          1 JTS      -0.567100
      9 N9           0.5320    -0.4150     0.1410 ns         1 JTS      -0.143000
     10 C10         -0.8880    -0.4880     0.0870 ca         1 JTS      -0.025000
     11 C15         -1.7300     0.6430    -0.0090 ca         1 JTS      -0.125000
     12 C14         -3.1290     0.4900    -0.0570 ca         1 JTS      -0.011000
     13 C16         -3.9630     1.6210    -0.1530 ca         1 JTS      -0.101000
     14 C17         -5.3600     1.4660    -0.2010 ca         1 JTS      -0.102000
     15 C18         -5.9270     0.1810    -0.1540 ca         1 JTS      -0.113000
     16 C19         -5.0990    -0.9510    -0.0580 ca         1 JTS      -0.092000
     17 C13         -3.7000    -0.8000    -0.0100 ca         1 JTS      -0.059000
     18 C12         -2.8670    -1.9270     0.0860 ca         1 JTS      -0.070000
     19 C11         -1.4710    -1.7680     0.1340 ca         1 JTS      -0.152000
     20 H1           5.7710    -1.6320     0.4170 h5         1 JTS       0.056100
     21 H2           3.4600     2.9050    -0.8080 hc         1 JTS       0.063033
     22 H3           3.3890     2.9990     0.9640 hc         1 JTS       0.063033
     23 H4           4.9520     2.9600     0.1390 hc         1 JTS       0.063033
     24 H5           0.9810    -1.3180     0.2070 hn         1 JTS       0.152000
     25 H6          -1.3190     1.6470    -0.0480 ha         1 JTS       0.147000
     26 H7          -3.5320     2.6190    -0.1910 ha         1 JTS       0.118000
     27 H8          -6.0010     2.3410    -0.2750 ha         1 JTS       0.113000
     28 H9          -7.0080     0.0620    -0.1910 ha         1 JTS       0.113000
     29 H10         -5.5460    -1.9420    -0.0220 ha         1 JTS       0.111000
     30 H11         -3.2970    -2.9250     0.1230 ha         1 JTS       0.115000
     31 H12         -0.8400    -2.6510     0.2080 ha         1 JTS       0.109000
@<TRIPOS>BOND
     1     1     2 1   
     2     1     3 2   
     3     1    20 1   
     4     2     6 1   
     5     3     4 1   
     6     4     5 1   
     7     4     6 2   
     8     5    21 1   
     9     5    22 1   
    10     5    23 1   
    11     6     7 1   
    12     7     8 2   
    13     7     9 1   
    14     9    10 1   
    15     9    24 1   
    16    10    11 ar  
    17    10    19 ar  
    18    11    12 ar  
    19    11    25 1   
    20    12    13 ar  
    21    12    17 ar  
    22    13    14 ar  
    23    13    26 1   
    24    14    15 ar  
    25    14    27 1   
    26    15    16 ar  
    27    15    28 1   
    28    16    17 ar  
    29    16    29 1   
    30    17    18 ar  
    31    18    19 ar  
    32    18    30 1   
    33    19    31 1   
@<TRIPOS>SUBSTRUCTURE
     1 JTS         1 TEMP              0 ****  ****    0 ROOT
