@<TRIPOS>MOLECULE
JTS
   31    33     1     0     0
SMALL
abcg2


@<TRIPOS>ATOM
      1 C22          4.9990    -0.7560    -0.3220 cc         1 JTS       0.435300
      2 S21          3.4100    -1.3150    -0.5990 ss         1 JTS      -0.019400
      3 N23          5.0860     0.4600     0.1130 nd         1 JTS      -0.645000
      4 C24          3.8580     1.0370     0.2540 cd         1 JTS       0.371300
      5 C26          3.7760     2.4430     0.7450 c3         1 JTS      -0.128400
      6 C20          2.8090     0.2150    -0.0790 cc         1 JTS      -0.333600
      7 C1           1.3760     0.5660    -0.0550 c          1 JTS       0.656700
      8 O8           1.0120     1.7240    -0.1420 o          1 JTS      -0.567100
      9 N9           0.5290    -0.4910     0.0730 ns         1 JTS      -0.143000
     10 C10         -0.8690    -0.4870     0.0910 ca         1 JTS      -0.025000
     11 C15         -1.6610     0.5770    -0.2700 ca         1 JTS      -0.125000
     12 C14         -3.0700     0.4620    -0.2260 ca         1 JTS      -0.011000
     13 C16         -3.9040     1.5460    -0.5920 ca         1 JTS      -0.101000
     14 C17         -5.2670     1.4260    -0.5450 ca         1 JTS      -0.102000
     15 C18         -5.8660     0.2190    -0.1280 ca         1 JTS      -0.113000
     16 C19         -5.0840    -0.8460     0.2310 ca         1 JTS      -0.092000
     17 C13         -3.6750    -0.7500     0.1900 ca         1 JTS      -0.059000
     18 C12         -2.8330    -1.8280     0.5490 ca         1 JTS      -0.070000
     19 C11         -1.4770    -1.7020     0.5030 ca         1 JTS      -0.152000
     20 H1           5.8510    -1.3930    -0.5170 h5         1 JTS       0.056100
     21 H2           3.5560     3.1310    -0.0720 hc         1 JTS       0.063033
     22 H3           2.9970     2.5700     1.4940 hc         1 JTS       0.063033
     23 H4           4.7290     2.7320     1.1810 hc         1 JTS       0.063033
     24 H5           0.9410    -1.3850     0.2960 hn         1 JTS       0.152000
     25 H6          -1.2350     1.5120    -0.5970 ha         1 JTS       0.147000
     26 H7          -3.4490     2.4740    -0.9140 ha         1 JTS       0.118000
     27 H8          -5.8930     2.2630    -0.8290 ha         1 JTS       0.113000
     28 H9          -6.9440     0.1390    -0.0930 ha         1 JTS       0.113000
     29 H10         -5.5380    -1.7760     0.5540 ha         1 JTS       0.111000
     30 H11         -3.2740    -2.7630     0.8690 ha         1 JTS       0.115000
     31 H12         -0.8500    -2.5400     0.7860 ha         1 JTS       0.109000
@<TRIPOS>BOND
     1     1     2 1   
     2     1     3 2   
     3     1    20 1   
     4     2     6 1   
     5     3     4 1   
     6     4     5 1   
     7     4     6 2   
     8     5    21 1   
     9     5    22 1   
    10     5    23 1   
    11     6     7 1   
    12     7     8 2   
    13     7     9 1   
    14     9    10 1   
    15     9    24 1   
    16    10    11 ar  
    17    10    19 ar  
    18    11    12 ar  
    19    11    25 1   
    20    12    13 ar  
    21    12    17 ar  
    22    13    14 ar  
    23    13    26 1   
    24    14    15 ar  
    25    14    27 1   
    26    15    16 ar  
    27    15    28 1   
    28    16    17 ar  
    29    16    29 1   
    30    17    18 ar  
    31    18    19 ar  
    32    18    30 1   
    33    19    31 1   
@<TRIPOS>SUBSTRUCTURE
     1 JTS         1 TEMP              0 ****  ****    0 ROOT
