@<TRIPOS>MOLECULE
JTT
   34    36     1     0     0
SMALL
bcc


@<TRIPOS>ATOM
      1 O8           0.9020    -2.0960     0.0880 o          1 JTT      -0.567100
      2 C1           1.1530    -0.9070     0.0030 c          1 JTT       0.724700
      3 C20          2.5380    -0.4120     0.0210 cc         1 JTT      -0.258000
      4 S21          3.0110     1.1340    -0.5840 ss         1 JTT      -0.170300
      5 C24          3.6490    -1.0870     0.4640 cd         1 JTT       0.446600
      6 C26          3.6890    -2.4590     1.0500 c3         1 JTT      -0.129400
      7 N23          4.8150    -0.3940     0.3400 nd         1 JTT      -0.662000
      8 C22          4.6430     0.7790    -0.1890 cc         1 JTT       0.462700
      9 C25          5.7370     1.7550    -0.4400 c3         1 JTT      -0.133400
     10 N9           0.1960     0.0570    -0.1190 ns         1 JTT      -0.478100
     11 C10         -1.1860    -0.1570    -0.2080 ca         1 JTT       0.074600
     12 C11         -1.7270    -1.2760    -0.8900 ca         1 JTT      -0.126000
     13 C12         -3.0820    -1.4250    -0.9870 ca         1 JTT      -0.098000
     14 C13         -3.9740    -0.4790    -0.4340 ca         1 JTT      -0.053000
     15 C14         -3.4310     0.6520     0.2260 ca         1 JTT      -0.011000
     16 C15         -2.0300     0.7840     0.3300 ca         1 JTT      -0.178000
     17 C19         -5.3770    -0.6180    -0.5270 ca         1 JTT      -0.107000
     18 C18         -6.2080     0.3270     0.0130 ca         1 JTT      -0.132000
     19 C17         -5.6690     1.4540     0.6680 ca         1 JTT      -0.119000
     20 C16         -4.3140     1.6150     0.7720 ca         1 JTT      -0.124000
     21 H1           3.5450    -3.2180     0.2810 hc         1 JTT       0.062700
     22 H2           4.6580    -2.6260     1.5150 hc         1 JTT       0.062700
     23 H3           2.9120    -2.6060     1.7970 hc         1 JTT       0.062700
     24 H4           5.3930     2.6200    -1.0030 hc         1 JTT       0.062367
     25 H5           6.1490     2.1070     0.5060 hc         1 JTT       0.062367
     26 H6           6.5430     1.2790    -0.9980 hc         1 JTT       0.062367
     27 H7           0.4640     1.0100     0.0780 hn         1 JTT       0.319500
     28 H8          -1.0790    -2.0070    -1.3470 ha         1 JTT       0.156000
     29 H9          -3.4850    -2.2850    -1.5080 ha         1 JTT       0.135000
     30 H10         -1.6220     1.6480     0.8430 ha         1 JTT       0.129000
     31 H11         -5.7870    -1.4850    -1.0310 ha         1 JTT       0.131000
     32 H12         -7.2820     0.2130    -0.0620 ha         1 JTT       0.131000
     33 H13         -6.3350     2.1960     1.0900 ha         1 JTT       0.130000
     34 H14         -3.9020     2.4820     1.2740 ha         1 JTT       0.130000
@<TRIPOS>BOND
     1     1     2 2   
     2     2     3 1   
     3     2    10 1   
     4     3     4 1   
     5     3     5 2   
     6     4     8 1   
     7     5     6 1   
     8     5     7 1   
     9     6    21 1   
    10     6    22 1   
    11     6    23 1   
    12     7     8 2   
    13     8     9 1   
    14     9    24 1   
    15     9    25 1   
    16     9    26 1   
    17    10    11 1   
    18    10    27 1   
    19    11    12 ar  
    20    11    16 ar  
    21    12    13 ar  
    22    12    28 1   
    23    13    14 ar  
    24    13    29 1   
    25    14    15 ar  
    26    14    17 ar  
    27    15    16 ar  
    28    15    20 ar  
    29    16    30 1   
    30    17    18 ar  
    31    17    31 1   
    32    18    19 ar  
    33    18    32 1   
    34    19    20 ar  
    35    19    33 1   
    36    20    34 1   
@<TRIPOS>SUBSTRUCTURE
     1 JTT         1 TEMP              0 ****  ****    0 ROOT
