@<TRIPOS>MOLECULE
JTT
   34    36     1     0     0
SMALL
No Charge or Current Charge


@<TRIPOS>ATOM
      1 O8           1.0780    -2.3710     0.0040 o          1 JTT      -0.567100
      2 C1           1.2360    -1.1590     0.0440 c          1 JTT       0.657700
      3 C20          2.5630    -0.5060     0.1060 cc         1 JTT      -0.337600
      4 S21          2.7880     1.2260     0.1650 ss         1 JTT      -0.025400
      5 C24          3.7720    -1.1730     0.1260 cd         1 JTT       0.381300
      6 C26          4.0100    -2.6580     0.0890 c3         1 JTT      -0.129400
      7 N23          4.8810    -0.3410     0.1860 nd         1 JTT      -0.662000
      8 C22          4.5030     0.9280     0.2130 cc         1 JTT       0.462700
      9 C25          5.4740     2.0680     0.2760 c3         1 JTT      -0.133400
     10 N9           0.1930    -0.2420     0.0380 ns         1 JTT      -0.152000
     11 C10         -1.2200    -0.3910    -0.0120 ca         1 JTT      -0.018000
     12 C11         -1.8760    -1.6410    -0.0770 ca         1 JTT      -0.108000
     13 C12         -3.2800    -1.7060    -0.1240 ca         1 JTT      -0.080000
     14 C13         -4.0460    -0.5280    -0.1090 ca         1 JTT      -0.053000
     15 C14         -3.3990     0.7240    -0.0450 ca         1 JTT      -0.011000
     16 C15         -1.9940     0.7850     0.0030 ca         1 JTT      -0.160000
     17 C19         -5.4520    -0.5900    -0.1560 ca         1 JTT      -0.089000
     18 C18         -6.2100     0.5940    -0.1400 ca         1 JTT      -0.114000
     19 C17         -5.5660     1.8420    -0.0760 ca         1 JTT      -0.101000
     20 C16         -4.1620     1.9070    -0.0290 ca         1 JTT      -0.106000
     21 H1           3.5980    -3.0970    -0.8260 hc         1 JTT       0.062700
     22 H2           5.0800    -2.8950     0.1160 hc         1 JTT       0.062700
     23 H3           3.5410    -3.1500     0.9480 hc         1 JTT       0.062700
     24 H4           5.4440     2.6490    -0.6530 hc         1 JTT       0.062367
     25 H5           5.2270     2.7390     1.1070 hc         1 JTT       0.062367
     26 H6           6.4990     1.7100     0.4210 hc         1 JTT       0.062367
     27 H7           0.4980     0.7210     0.0770 hn         1 JTT       0.153000
     28 H8          -1.3220    -2.5730    -0.0910 ha         1 JTT       0.138000
     29 H9          -3.7700    -2.6760    -0.1730 ha         1 JTT       0.117000
     30 H10         -1.5010     1.7530     0.0520 ha         1 JTT       0.111000
     31 H11         -5.9580    -1.5520    -0.2050 ha         1 JTT       0.113000
     32 H12         -7.2960     0.5440    -0.1770 ha         1 JTT       0.113000
     33 H13         -6.1540     2.7570    -0.0640 ha         1 JTT       0.112000
     34 H14         -3.6710     2.8760     0.0200 ha         1 JTT       0.112000
@<TRIPOS>BOND
     1     1     2 2   
     2     2     3 1   
     3     2    10 1   
     4     3     4 1   
     5     3     5 2   
     6     4     8 1   
     7     5     6 1   
     8     5     7 1   
     9     6    21 1   
    10     6    22 1   
    11     6    23 1   
    12     7     8 2   
    13     8     9 1   
    14     9    24 1   
    15     9    25 1   
    16     9    26 1   
    17    10    11 1   
    18    10    27 1   
    19    11    12 ar  
    20    11    16 ar  
    21    12    13 ar  
    22    12    28 1   
    23    13    14 ar  
    24    13    29 1   
    25    14    15 ar  
    26    14    17 ar  
    27    15    16 ar  
    28    15    20 ar  
    29    16    30 1   
    30    17    18 ar  
    31    17    31 1   
    32    18    19 ar  
    33    18    32 1   
    34    19    20 ar  
    35    19    33 1   
    36    20    34 1   
@<TRIPOS>SUBSTRUCTURE
     1 JTT         1 TEMP              0 ****  ****    0 ROOT
