@<TRIPOS>MOLECULE
JTU
   44    46     1     0     0
SMALL
No Charge or Current Charge


@<TRIPOS>ATOM
      1 C1           8.9550    -0.1820     0.9040 c3         1 JTU      -0.088100
      2 C2           7.4130    -0.2390     0.9560 c3         1 JTU      -0.071400
      3 C3           6.7320    -0.5890    -0.3950 c3         1 JTU      -0.010400
      4 C4           7.0840    -2.0100    -0.8980 c3         1 JTU      -0.081100
      5 C5           5.2150    -0.4000    -0.3070 ca         1 JTU      -0.088300
      6 C8           4.5760     0.5740    -1.0970 ca         1 JTU      -0.120500
      7 C9           3.1840     0.7550    -1.0200 ca         1 JTU      -0.085000
      8 C6           4.4360    -1.1950     0.5570 ca         1 JTU      -0.120500
      9 C7           3.0440    -1.0140     0.6330 ca         1 JTU      -0.085000
     10 C10          2.3890    -0.0260    -0.1450 cp         1 JTU      -0.118500
     11 C11          0.9010     0.1570    -0.0640 cp         1 JTU       0.414500
     12 N1           0.1830    -0.9800    -0.1930 nb         1 JTU      -0.708000
     13 C12         -1.1640    -0.9330    -0.1870 ca         1 JTU       0.270000
     14 C13         -1.8890    -2.1300    -0.3440 ca         1 JTU      -0.102000
     15 C14         -3.2930    -2.1330    -0.3540 ca         1 JTU      -0.097000
     16 C15         -3.9880    -0.9260    -0.2050 ca         1 JTU      -0.053900
     17 Br1         -5.9000    -0.9230    -0.2190 br         1 JTU      -0.141100
     18 C16         -3.2860     0.2790    -0.0430 ca         1 JTU      -0.005000
     19 C17         -1.8710     0.2860    -0.0300 ca         1 JTU      -0.064000
     20 C18         -1.1400     1.4890     0.1400 ca         1 JTU      -0.062600
     21 C19         -1.8530     2.8090     0.3170 c          1 JTU       0.711600
     22 O1          -2.3440     3.0550     1.4100 o          1 JTU      -0.700500
     23 O2          -1.9330     3.5540    -0.6490 o          1 JTU      -0.700500
     24 C20          0.2770     1.4230     0.1360 ca         1 JTU      -0.122300
     25 C21          1.0960     2.6960     0.3750 c3         1 JTU      -0.031800
     26 H1           9.3540     0.1550     1.8680 hc         1 JTU       0.026700
     27 H2           9.3810    -1.1700     0.6920 hc         1 JTU       0.026700
     28 H3           9.2930     0.5180     0.1310 hc         1 JTU       0.026700
     29 H4           7.1090    -0.9610     1.7230 hc         1 JTU       0.043200
     30 H5           7.0460     0.7410     1.2870 hc         1 JTU       0.043200
     31 H6           7.1260     0.1130    -1.1420 hc         1 JTU       0.043700
     32 H7           8.1540    -2.0980    -1.1150 hc         1 JTU       0.030700
     33 H8           6.8200    -2.7700    -0.1540 hc         1 JTU       0.030700
     34 H9           6.5380    -2.2320    -1.8230 hc         1 JTU       0.030700
     35 H10          5.1550     1.1940    -1.7770 ha         1 JTU       0.101500
     36 H11          2.7140     1.5040    -1.6540 ha         1 JTU       0.124500
     37 H12          4.9060    -1.9570     1.1740 ha         1 JTU       0.101500
     38 H13          2.4640    -1.6400     1.3080 ha         1 JTU       0.124500
     39 H14         -1.3530    -3.0680    -0.4630 ha         1 JTU       0.114000
     40 H15         -3.8350    -3.0670    -0.4780 ha         1 JTU       0.110000
     41 H16         -3.8560     1.1980     0.0710 ha         1 JTU       0.161000
     42 H18          1.2500     3.2460    -0.5610 hc         1 JTU       0.041033
     43 H19          0.6050     3.3730     1.0830 hc         1 JTU       0.041033
     44 H20          2.0810     2.4770     0.8030 hc         1 JTU       0.041033
@<TRIPOS>BOND
     1     1     2 1   
     2     1    26 1   
     3     1    27 1   
     4     1    28 1   
     5     2     3 1   
     6     2    29 1   
     7     2    30 1   
     8     3     4 1   
     9     3     5 1   
    10     3    31 1   
    11     4    32 1   
    12     4    33 1   
    13     4    34 1   
    14     5     6 ar  
    15     5     8 ar  
    16     6     7 ar  
    17     6    35 1   
    18     7    10 ar  
    19     7    36 1   
    20     8     9 ar  
    21     8    37 1   
    22     9    10 ar  
    23     9    38 1   
    24    10    11 1   
    25    11    12 ar  
    26    11    24 ar  
    27    12    13 ar  
    28    13    14 ar  
    29    13    19 ar  
    30    14    15 ar  
    31    14    39 1   
    32    15    16 ar  
    33    15    40 1   
    34    16    17 1   
    35    16    18 ar  
    36    18    19 ar  
    37    18    41 1   
    38    19    20 ar  
    39    20    21 1   
    40    20    24 ar  
    41    21    22 1   
    42    21    23 1   
    43    24    25 1   
    44    25    42 1   
    45    25    43 1   
    46    25    44 1   
@<TRIPOS>SUBSTRUCTURE
     1 JTU         1 TEMP              0 ****  ****    0 ROOT
