@<TRIPOS>MOLECULE
JTU
   44    46     1     0     0
SMALL
bcc


@<TRIPOS>ATOM
      1 C1           8.8560    -0.2200     0.8880 c3         1 JTU      -0.088100
      2 C2           7.3340    -0.2110     0.9340 c3         1 JTU      -0.071400
      3 C3           6.6730    -0.5830    -0.4010 c3         1 JTU      -0.010400
      4 C4           7.0230    -2.0020    -0.8470 c3         1 JTU      -0.081100
      5 C5           5.1780    -0.3870    -0.3220 ca         1 JTU      -0.088300
      6 C8           4.5460     0.6040    -1.0660 ca         1 JTU      -0.138500
      7 C9           3.1750     0.8050    -0.9830 ca         1 JTU      -0.103000
      8 C6           4.3860    -1.1850     0.5060 ca         1 JTU      -0.138500
      9 C7           3.0160    -0.9980     0.5810 ca         1 JTU      -0.103000
     10 C10          2.3900     0.0080    -0.1540 cp         1 JTU      -0.118500
     11 C11          0.9170     0.1620    -0.0870 cp         1 JTU       0.479800
     12 N1           0.2410    -0.9540    -0.2200 nb         1 JTU      -0.708000
     13 C12         -1.1050    -0.9160    -0.1920 ca         1 JTU       0.400600
     14 C13         -1.8160    -2.1290    -0.3440 ca         1 JTU      -0.185300
     15 C14         -3.1820    -2.1480    -0.3380 ca         1 JTU      -0.115000
     16 C15         -3.8840    -0.9360    -0.1740 ca         1 JTU      -0.053900
     17 BR1         -5.7720    -0.9840    -0.1650 br         1 JTU      -0.141100
     18 C16         -3.2360     0.2570    -0.0170 ca         1 JTU      -0.023000
     19 C17         -1.8220     0.2910    -0.0280 ca         1 JTU      -0.129300
     20 C18         -1.0760     1.4880     0.1270 ca         1 JTU      -0.062600
     21 C19         -1.8010     2.8130     0.3110 c          1 JTU       0.922200
     22 O1          -2.3430     2.9840     1.4160 o          1 JTU      -0.805800
     23 O2          -1.7780     3.5770    -0.6660 o          1 JTU      -0.805800
     24 C20          0.2990     1.4310     0.1190 ca         1 JTU      -0.187600
     25 C21          1.1100     2.6750     0.3610 c3         1 JTU      -0.031800
     26 H1           9.2760     0.1170     1.8370 hc         1 JTU       0.026700
     27 H2           9.2560    -1.2150     0.6920 hc         1 JTU       0.026700
     28 H3           9.2290     0.4450     0.1070 hc         1 JTU       0.026700
     29 H4           6.9840    -0.8950     1.7140 hc         1 JTU       0.043200
     30 H5           6.9930     0.7860     1.2270 hc         1 JTU       0.043200
     31 H6           7.0540     0.1090    -1.1600 hc         1 JTU       0.043700
     32 H7           8.0940    -2.1100    -1.0230 hc         1 JTU       0.030700
     33 H8           6.7380    -2.7390    -0.0930 hc         1 JTU       0.030700
     34 H9           6.5110    -2.2590    -1.7750 hc         1 JTU       0.030700
     35 H10          5.1340     1.2310    -1.7270 ha         1 JTU       0.119500
     36 H11          2.7180     1.5780    -1.5880 ha         1 JTU       0.142500
     37 H12          4.8400    -1.9680     1.1020 ha         1 JTU       0.119500
     38 H13          2.4220    -1.6360     1.2240 ha         1 JTU       0.142500
     39 H14         -1.2550    -3.0460    -0.4710 ha         1 JTU       0.132000
     40 H15         -3.7140    -3.0810    -0.4610 ha         1 JTU       0.128000
     41 H16         -3.7960     1.1720     0.1230 ha         1 JTU       0.179000
     42 H18          1.2990     3.2230    -0.5630 hc         1 JTU       0.041033
     43 H19          0.5920     3.3530     1.0370 hc         1 JTU       0.041033
     44 H20          2.0740     2.4450     0.8110 hc         1 JTU       0.041033
@<TRIPOS>BOND
     1     1     2 1   
     2     1    26 1   
     3     1    27 1   
     4     1    28 1   
     5     2     3 1   
     6     2    29 1   
     7     2    30 1   
     8     3     4 1   
     9     3     5 1   
    10     3    31 1   
    11     4    32 1   
    12     4    33 1   
    13     4    34 1   
    14     5     6 ar  
    15     5     8 ar  
    16     6     7 ar  
    17     6    35 1   
    18     7    10 ar  
    19     7    36 1   
    20     8     9 ar  
    21     8    37 1   
    22     9    10 ar  
    23     9    38 1   
    24    10    11 1   
    25    11    12 ar  
    26    11    24 ar  
    27    12    13 ar  
    28    13    14 ar  
    29    13    19 ar  
    30    14    15 ar  
    31    14    39 1   
    32    15    16 ar  
    33    15    40 1   
    34    16    17 1   
    35    16    18 ar  
    36    18    19 ar  
    37    18    41 1   
    38    19    20 ar  
    39    20    21 1   
    40    20    24 ar  
    41    21    22 1   
    42    21    23 1   
    43    24    25 1   
    44    25    42 1   
    45    25    43 1   
    46    25    44 1   
@<TRIPOS>SUBSTRUCTURE
     1 JTU         1 TEMP              0 ****  ****    0 ROOT
