@<TRIPOS>MOLECULE
JTV
  172   173     1     0     0
SMALL
No Charge or Current Charge


@<TRIPOS>ATOM
      1 C3          -2.4490     3.7760     1.3890 c6         1 JTV       0.173300
      2 C4          -1.8520     3.8600    -0.0510 c6         1 JTV       0.149300
      3 C5          -2.9430     3.3410    -1.0510 c6         1 JTV       0.155300
      4 C6          -4.2530     4.1680    -0.9000 c6         1 JTV       0.116300
      5 C1          -4.7370     4.1150     0.5880 c6         1 JTV       0.356300
      6 C2          -1.4480     4.2880     2.4780 c3         1 JTV       0.167600
      7 CBT        -20.1460   -13.3060    -2.0780 c3         1 JTV      -0.088100
      8 CBS        -19.6620   -11.8500    -2.2150 c3         1 JTV      -0.074400
      9 CBR        -18.2010   -11.6510    -1.7540 c3         1 JTV      -0.075400
     10 CBQ        -17.7230   -10.1890    -1.8880 c3         1 JTV      -0.074400
     11 CBP        -16.2710    -9.9760    -1.4070 c3         1 JTV      -0.074400
     12 CBO        -15.8120    -8.5070    -1.5290 c3         1 JTV      -0.074400
     13 CBN        -14.3760    -8.2670    -1.0140 c3         1 JTV      -0.074400
     14 CBM        -13.9500    -6.7870    -1.1170 c3         1 JTV      -0.074400
     15 CBL        -12.5380    -6.5130    -0.5560 c3         1 JTV      -0.074400
     16 CBK        -12.1510    -5.0200    -0.6280 c3         1 JTV      -0.074400
     17 CBJ        -10.7690    -4.7130    -0.0120 c3         1 JTV      -0.073400
     18 CBI        -10.4210    -3.2090    -0.0500 c3         1 JTV      -0.075400
     19 CBG         -8.7580    -1.3560     0.6060 c3         1 JTV      -0.109400
     20 CAQ         -7.4950    -0.9470     1.4160 c3         1 JTV       0.138300
     21 OAR         -6.3660    -1.6330     0.8440 oh         1 JTV      -0.637000
     22 CAP         -7.2380     0.6080     1.4430 c3         1 JTV       0.129300
     23 OAS         -8.4460     1.3100     1.8130 oh         1 JTV      -0.638000
     24 CAN         -6.0870     1.0800     2.4000 c3         1 JTV       0.087700
     25 O1          -5.1630     2.7780     0.9190 os         1 JTV      -0.474000
     26 O5          -5.2560     3.6530    -1.8110 oh         1 JTV      -0.710000
     27 O3          -2.5320     3.3470    -2.4320 oh         1 JTV      -0.723000
     28 O2          -3.6850     4.5380     1.4830 os         1 JTV      -0.448000
     29 O6          -1.9630     4.1940     3.8220 oh         1 JTV      -0.714000
     30 O4          -1.3820     5.2130    -0.3180 os         1 JTV      -0.452000
     31 CAT         -0.5730     5.4440    -1.4860 c3         1 JTV       0.213900
     32 CAU          0.0810     6.8120    -1.3460 ca         1 JTV      -0.092300
     33 CAV          1.3740     6.9300    -0.7980 ca         1 JTV      -0.091500
     34 CAW          1.9780     8.1940    -0.6710 ca         1 JTV      -0.114000
     35 CAX          1.2910     9.3470    -1.0880 ca         1 JTV      -0.104000
     36 CAY          0.0000     9.2350    -1.6320 ca         1 JTV      -0.114000
     37 CAZ         -0.6030     7.9720    -1.7600 ca         1 JTV      -0.091500
     38 NAO         -4.8720     0.2580     2.2820 ns         1 JTV      -0.504900
     39 CBE         -3.8430     0.2230     3.1910 c          1 JTV       0.612100
     40 OBF         -3.8710     0.8560     4.2360 o          1 JTV      -0.598100
     41 CBU         -2.6820    -0.7040     2.8180 c3         1 JTV      -0.150400
     42 CBV         -1.4580     0.1040     2.3250 c3         1 JTV      -0.063400
     43 CBW         -0.2150    -0.7720     2.0670 c3         1 JTV      -0.076400
     44 CBX          1.0100     0.0450     1.6030 c3         1 JTV      -0.075400
     45 CBY          2.2690    -0.8260     1.3980 c3         1 JTV      -0.074400
     46 CBZ          3.5110    -0.0070     0.9880 c3         1 JTV      -0.075400
     47 CCA          4.7790    -0.8750     0.8310 c3         1 JTV      -0.074400
     48 CCB          6.0360    -0.0520     0.4780 c3         1 JTV      -0.074400
     49 CCC          7.3080    -0.9180     0.3530 c3         1 JTV      -0.074400
     50 CCD          8.5770    -0.0870     0.0630 c3         1 JTV      -0.074400
     51 CCE          9.8510    -0.9510    -0.0490 c3         1 JTV      -0.074400
     52 CCF         11.1310    -0.1160    -0.2710 c3         1 JTV      -0.074400
     53 CCG         12.4040    -0.9840    -0.3820 c3         1 JTV      -0.074400
     54 CCH         13.6940    -0.1490    -0.5330 c3         1 JTV      -0.074400
     55 CCI         14.9640    -1.0210    -0.6510 c3         1 JTV      -0.074400
     56 CCJ         16.2640    -0.1910    -0.7310 c3         1 JTV      -0.074400
     57 CCK         17.5290    -1.0660    -0.8590 c3         1 JTV      -0.074400
     58 CCL         18.8370    -0.2450    -0.8720 c3         1 JTV      -0.074400
     59 CCM         20.0980    -1.1250    -1.0100 c3         1 JTV      -0.074400
     60 CCN         21.4120    -0.3150    -0.9650 c3         1 JTV      -0.074400
     61 CCO         22.6690    -1.1990    -1.1130 c3         1 JTV      -0.074400
     62 CCP         23.9870    -0.3990    -1.0260 c3         1 JTV      -0.074400
     63 CCQ         25.2420    -1.2860    -1.1840 c3         1 JTV      -0.075400
     64 CCR         26.5620    -0.4910    -1.0710 c3         1 JTV      -0.074400
     65 CCS         27.8130    -1.3760    -1.2370 c3         1 JTV      -0.088100
     66 H1          -2.6730     2.7250     1.6190 h1         1 JTV       0.049700
     67 H2          -0.9860     3.1830    -0.0970 h1         1 JTV       0.049700
     68 H3          -3.1720     2.3040    -0.7610 h1         1 JTV       0.053700
     69 H4          -4.0310     5.2180    -1.1420 h1         1 JTV       0.070700
     70 H5          -5.5940     4.7980     0.6990 h2         1 JTV       0.069700
     71 H6          -0.5230     3.7020     2.3900 h1         1 JTV       0.035200
     72 H7          -1.1940     5.3320     2.2490 h1         1 JTV       0.035200
     73 H8         -19.5300   -13.9800    -2.6860 hc         1 JTV       0.031367
     74 H9         -20.0930   -13.6360    -1.0330 hc         1 JTV       0.031367
     75 H10        -21.1870   -13.3960    -2.4130 hc         1 JTV       0.031367
     76 H11        -19.7590   -11.5400    -3.2630 hc         1 JTV       0.036700
     77 H12        -20.3210   -11.2000    -1.6260 hc         1 JTV       0.036700
     78 H13        -18.1090   -11.9660    -0.7070 hc         1 JTV       0.036700
     79 H14        -17.5440   -12.3010    -2.3450 hc         1 JTV       0.036700
     80 H15        -17.8050    -9.8780    -2.9370 hc         1 JTV       0.036700
     81 H16        -18.3910    -9.5390    -1.3080 hc         1 JTV       0.036700
     82 H17        -16.1870   -10.2940    -0.3600 hc         1 JTV       0.036700
     83 H18        -15.5970   -10.6160    -1.9920 hc         1 JTV       0.036700
     84 H19        -15.8750    -8.1970    -2.5800 hc         1 JTV       0.036700
     85 H20        -16.5050    -7.8690    -0.9660 hc         1 JTV       0.036700
     86 H21        -14.3110    -8.5890     0.0330 hc         1 JTV       0.037700
     87 H22        -13.6750    -8.8880    -1.5870 hc         1 JTV       0.037700
     88 H23        -13.9890    -6.4720    -2.1670 hc         1 JTV       0.036700
     89 H24        -14.6750    -6.1690    -0.5720 hc         1 JTV       0.036700
     90 H25        -12.4950    -6.8460     0.4890 hc         1 JTV       0.037700
     91 H26        -11.8030    -7.1070    -1.1130 hc         1 JTV       0.037700
     92 H27        -12.1590    -4.6950    -1.6760 hc         1 JTV       0.036700
     93 H28        -12.9130    -4.4290    -0.1050 hc         1 JTV       0.036700
     94 H29        -10.7570    -5.0600     1.0300 hc         1 JTV       0.038700
     95 H30         -9.9980    -5.2790    -0.5490 hc         1 JTV       0.038700
     96 H31        -10.3920    -2.8720    -1.0950 hc         1 JTV       0.036200
     97 H32        -11.2220    -2.6450     0.4450 hc         1 JTV       0.036200
     98 H33         -9.1050    -3.2200     1.6700 hc         1 JTV       0.044700
     99 H34         -8.2770    -3.4300     0.1250 hc         1 JTV       0.044700
    100 H35         -8.6460    -1.0250    -0.4340 hc         1 JTV       0.048200
    101 H36         -9.6310    -0.8270     1.0080 hc         1 JTV       0.048200
    102 H37         -7.6380    -1.2790     2.4540 h1         1 JTV       0.067700
    103 H38         -6.5800    -2.5920     0.8460 ho         1 JTV       0.436000
    104 H39         -6.9540     0.8960     0.4210 h1         1 JTV       0.077700
    105 H40         -8.7860     0.9070     2.6420 ho         1 JTV       0.437000
    106 H41         -6.4530     0.9530     3.4280 h1         1 JTV       0.094700
    107 H42         -6.6680     3.1910     2.3250 h1         1 JTV       0.048700
    108 H43         -5.0600     2.9020     3.0100 h1         1 JTV       0.048700
    109 H44         -5.7280     2.9400    -1.3160 ho         1 JTV       0.511000
    110 H45         -3.3830     3.3890    -2.9330 ho         1 JTV       0.525000
    111 H46         -1.3050     4.6280     4.4140 ho         1 JTV       0.506000
    112 H47          0.2040     4.6740    -1.5820 h1         1 JTV       0.041700
    113 H48         -1.1800     5.4370    -2.3990 h1         1 JTV       0.041700
    114 H49          1.9110     6.0420    -0.4700 ha         1 JTV       0.110000
    115 H50          2.9760     8.2790    -0.2470 ha         1 JTV       0.112000
    116 H51          1.7580    10.3250    -0.9890 ha         1 JTV       0.112000
    117 H52         -0.5330    10.1270    -1.9540 ha         1 JTV       0.112000
    118 H53         -1.6040     7.8930    -2.1800 ha         1 JTV       0.110000
    119 H54         -4.8060    -0.3670     1.4850 hn         1 JTV       0.308500
    120 H55         -2.3890    -1.2730     3.7080 hc         1 JTV       0.050700
    121 H56         -2.9860    -1.3880     2.0170 hc         1 JTV       0.050700
    122 H57         -1.7240     0.6290     1.3990 hc         1 JTV       0.057200
    123 H58         -1.2070     0.8710     3.0700 hc         1 JTV       0.057200
    124 H59          0.0410    -1.3110     2.9880 hc         1 JTV       0.032200
    125 H60         -0.4550    -1.5280     1.3090 hc         1 JTV       0.032200
    126 H61          0.7690     0.5600     0.6640 hc         1 JTV       0.040200
    127 H62          1.2280     0.8210     2.3480 hc         1 JTV       0.040200
    128 H63          2.4870    -1.3640     2.3300 hc         1 JTV       0.035700
    129 H64          2.0640    -1.5830     0.6310 hc         1 JTV       0.035700
    130 H65          3.3080     0.5120     0.0420 hc         1 JTV       0.038700
    131 H66          3.6970     0.7660     1.7440 hc         1 JTV       0.038700
    132 H67          4.9590    -1.4180     1.7670 hc         1 JTV       0.036700
    133 H68          4.6080    -1.6280     0.0510 hc         1 JTV       0.036700
    134 H69          5.8670     0.4810    -0.4660 hc         1 JTV       0.037700
    135 H70          6.1950     0.7100     1.2520 hc         1 JTV       0.037700
    136 H71          7.4540    -1.4800     1.2840 hc         1 JTV       0.037200
    137 H72          7.1670    -1.6550    -0.4480 hc         1 JTV       0.037200
    138 H73          8.4380     0.4740    -0.8700 hc         1 JTV       0.037700
    139 H74          8.7120     0.6520     0.8640 hc         1 JTV       0.037700
    140 H75          9.9650    -1.5430     0.8680 hc         1 JTV       0.036700
    141 H76          9.7340    -1.6620    -0.8760 hc         1 JTV       0.036700
    142 H77         11.0200     0.4820    -1.1840 hc         1 JTV       0.037200
    143 H78         11.2480     0.5890     0.5620 hc         1 JTV       0.037200
    144 H79         12.4880    -1.6140     0.5120 hc         1 JTV       0.036700
    145 H80         12.3050    -1.6590    -1.2420 hc         1 JTV       0.036700
    146 H81         13.6110     0.4900    -1.4220 hc         1 JTV       0.036700
    147 H82         13.7940     0.5170     0.3330 hc         1 JTV       0.036700
    148 H83         15.0210    -1.6920     0.2150 hc         1 JTV       0.036700
    149 H84         14.8840    -1.6550    -1.5430 hc         1 JTV       0.036700
    150 H85         16.2080     0.4900    -1.5900 hc         1 JTV       0.037200
    151 H86         16.3460     0.4330     0.1680 hc         1 JTV       0.037200
    152 H87         17.5620    -1.7760    -0.0230 hc         1 JTV       0.037200
    153 H88         17.4650    -1.6590    -1.7800 hc         1 JTV       0.037200
    154 H89         18.8060     0.4740    -1.7000 hc         1 JTV       0.037200
    155 H90         18.9040     0.3380     0.0560 hc         1 JTV       0.037200
    156 H91         20.1090    -1.8680    -0.2020 hc         1 JTV       0.036700
    157 H92         20.0470    -1.6800    -1.9560 hc         1 JTV       0.036700
    158 H93         21.4020     0.4360    -1.7660 hc         1 JTV       0.036700
    159 H94         21.4650     0.2310    -0.0140 hc         1 JTV       0.036700
    160 H95         22.6630    -1.9680    -0.3290 hc         1 JTV       0.036700
    161 H96         22.6280    -1.7240    -2.0770 hc         1 JTV       0.036700
    162 H97         23.9920     0.3760    -1.8040 hc         1 JTV       0.036700
    163 H98         24.0310     0.1180    -0.0580 hc         1 JTV       0.036700
    164 H99         25.2280    -2.0710    -0.4160 hc         1 JTV       0.036700
    165 H100        25.2060    -1.7900    -2.1590 hc         1 JTV       0.036700
    166 H101        26.5780     0.2980    -1.8340 hc         1 JTV       0.036700
    167 H102        26.6040     0.0070    -0.0930 hc         1 JTV       0.036700
    168 H103        27.8400    -2.1590    -0.4670 hc         1 JTV       0.031367
    169 H104        27.8200    -1.8590    -2.2230 hc         1 JTV       0.031367
    170 H105        28.7230    -0.7720    -1.1430 hc         1 JTV       0.031367
    171 CAM         -5.7550     2.5900     2.2210 c3         1 JTV       0.143600
    172 CBH         -9.0760    -2.8730     0.6290 c3         1 JTV      -0.071400
@<TRIPOS>BOND
     1     1     2 1   
     2     1     6 1   
     3     1    28 1   
     4     1    66 1   
     5     2     3 1   
     6     2    30 1   
     7     2    67 1   
     8     3     4 1   
     9     3    27 1   
    10     3    68 1   
    11     4     5 1   
    12     4    26 1   
    13     4    69 1   
    14     5    25 1   
    15     5    28 1   
    16     5    70 1   
    17     6    29 1   
    18     6    71 1   
    19     6    72 1   
    20     7     8 1   
    21     7    73 1   
    22     7    74 1   
    23     7    75 1   
    24     8     9 1   
    25     8    76 1   
    26     8    77 1   
    27     9    10 1   
    28     9    78 1   
    29     9    79 1   
    30    10    11 1   
    31    10    80 1   
    32    10    81 1   
    33    11    12 1   
    34    11    82 1   
    35    11    83 1   
    36    12    13 1   
    37    12    84 1   
    38    12    85 1   
    39    13    14 1   
    40    13    86 1   
    41    13    87 1   
    42    14    15 1   
    43    14    88 1   
    44    14    89 1   
    45    15    16 1   
    46    15    90 1   
    47    15    91 1   
    48    16    17 1   
    49    16    92 1   
    50    16    93 1   
    51    17    18 1   
    52    17    94 1   
    53    17    95 1   
    54    18    96 1   
    55    18    97 1   
    56    18   172 1   
    57    19    20 1   
    58    19   100 1   
    59    19   101 1   
    60    19   172 1   
    61    20    21 1   
    62    20    22 1   
    63    20   102 1   
    64    21   103 1   
    65    22    23 1   
    66    22    24 1   
    67    22   104 1   
    68    23   105 1   
    69    24    38 1   
    70    24   106 1   
    71    24   171 1   
    72    25   171 1   
    73    26   109 1   
    74    27   110 1   
    75    29   111 1   
    76    30    31 1   
    77    31    32 1   
    78    31   112 1   
    79    31   113 1   
    80    32    33 ar  
    81    32    37 ar  
    82    33    34 ar  
    83    33   114 1   
    84    34    35 ar  
    85    34   115 1   
    86    35    36 ar  
    87    35   116 1   
    88    36    37 ar  
    89    36   117 1   
    90    37   118 1   
    91    38    39 1   
    92    38   119 1   
    93    39    40 2   
    94    39    41 1   
    95    41    42 1   
    96    41   120 1   
    97    41   121 1   
    98    42    43 1   
    99    42   122 1   
   100    42   123 1   
   101    43    44 1   
   102    43   124 1   
   103    43   125 1   
   104    44    45 1   
   105    44   126 1   
   106    44   127 1   
   107    45    46 1   
   108    45   128 1   
   109    45   129 1   
   110    46    47 1   
   111    46   130 1   
   112    46   131 1   
   113    47    48 1   
   114    47   132 1   
   115    47   133 1   
   116    48    49 1   
   117    48   134 1   
   118    48   135 1   
   119    49    50 1   
   120    49   136 1   
   121    49   137 1   
   122    50    51 1   
   123    50   138 1   
   124    50   139 1   
   125    51    52 1   
   126    51   140 1   
   127    51   141 1   
   128    52    53 1   
   129    52   142 1   
   130    52   143 1   
   131    53    54 1   
   132    53   144 1   
   133    53   145 1   
   134    54    55 1   
   135    54   146 1   
   136    54   147 1   
   137    55    56 1   
   138    55   148 1   
   139    55   149 1   
   140    56    57 1   
   141    56   150 1   
   142    56   151 1   
   143    57    58 1   
   144    57   152 1   
   145    57   153 1   
   146    58    59 1   
   147    58   154 1   
   148    58   155 1   
   149    59    60 1   
   150    59   156 1   
   151    59   157 1   
   152    60    61 1   
   153    60   158 1   
   154    60   159 1   
   155    61    62 1   
   156    61   160 1   
   157    61   161 1   
   158    62    63 1   
   159    62   162 1   
   160    62   163 1   
   161    63    64 1   
   162    63   164 1   
   163    63   165 1   
   164    64    65 1   
   165    64   166 1   
   166    64   167 1   
   167    65   168 1   
   168    65   169 1   
   169    65   170 1   
   170    98   172 1   
   171    99   172 1   
   172   107   171 1   
   173   108   171 1   
@<TRIPOS>SUBSTRUCTURE
     1 JTV         1 TEMP              0 ****  ****    0 ROOT
