@<TRIPOS>MOLECULE
JTV
  172   173     1     0     0
SMALL
abcg2


@<TRIPOS>ATOM
      1 C3          -3.1800     3.8280     0.2570 c6         1 JTV       0.173300
      2 C4          -3.4740     4.3880    -1.1310 c6         1 JTV       0.149300
      3 C5          -4.9820     4.3350    -1.3620 c6         1 JTV       0.155300
      4 C6          -5.6930     5.0860    -0.2420 c6         1 JTV       0.116300
      5 C1          -5.2810     4.5180     1.1210 c6         1 JTV       0.356300
      6 C2          -1.7070     3.8690     0.6000 c3         1 JTV       0.167600
      7 CBT        -19.2100   -13.4520    -2.4070 c3         1 JTV      -0.088100
      8 CBS        -18.6170   -12.0860    -2.7250 c3         1 JTV      -0.074400
      9 CBR        -17.5160   -11.6790    -1.7540 c3         1 JTV      -0.075400
     10 CBQ        -16.9140   -10.3130    -2.0610 c3         1 JTV      -0.074400
     11 CBP        -15.8180    -9.9030    -1.0860 c3         1 JTV      -0.074400
     12 CBO        -15.2190    -8.5380    -1.3960 c3         1 JTV      -0.074400
     13 CBN        -14.1240    -8.1200    -0.4220 c3         1 JTV      -0.074400
     14 CBM        -13.5300    -6.7540    -0.7390 c3         1 JTV      -0.074400
     15 CBL        -12.4370    -6.3260     0.2320 c3         1 JTV      -0.074400
     16 CBK        -11.8520    -4.9580    -0.0940 c3         1 JTV      -0.074400
     17 CBJ        -10.7570    -4.5160     0.8690 c3         1 JTV      -0.073400
     18 CBI        -10.1880    -3.1440     0.5300 c3         1 JTV      -0.075400
     19 CBG         -8.5580    -1.3040     1.1200 c3         1 JTV      -0.109400
     20 CAQ         -7.4580    -0.7950     2.0480 c3         1 JTV       0.138300
     21 OAR         -6.3330    -1.6410     2.0360 oh         1 JTV      -0.637000
     22 CAP         -7.1250     0.6810     1.7420 c3         1 JTV       0.129300
     23 OAS         -8.2410     1.4820     2.0510 oh         1 JTV      -0.638000
     24 CAN         -5.8510     1.1810     2.4540 c3         1 JTV       0.087700
     25 O1          -5.7980     3.2340     1.2400 os         1 JTV      -0.474000
     26 O5          -7.0780     4.9940    -0.4620 oh         1 JTV      -0.710000
     27 O3          -5.2770     4.8710    -2.6260 oh         1 JTV      -0.723000
     28 O2          -3.8860     4.5450     1.2560 os         1 JTV      -0.448000
     29 O6          -1.5060     3.1320     1.7820 oh         1 JTV      -0.714000
     30 O4          -2.9560     5.6950    -1.1960 os         1 JTV      -0.452000
     31 CAT         -2.5710     6.1680    -2.4710 c3         1 JTV       0.213900
     32 CAU         -1.4540     7.1560    -2.2910 ca         1 JTV      -0.092300
     33 CAV         -0.2260     6.7420    -1.7760 ca         1 JTV      -0.091500
     34 CAW          0.8050     7.6500    -1.5910 ca         1 JTV      -0.114000
     35 CAX          0.6220     8.9900    -1.9180 ca         1 JTV      -0.104000
     36 CAY         -0.5950     9.4110    -2.4320 ca         1 JTV      -0.114000
     37 CAZ         -1.6270     8.4970    -2.6140 ca         1 JTV      -0.091500
     38 NAO         -4.6750     0.6880     1.7740 ns         1 JTV      -0.504900
     39 CBE         -3.6050     0.1530     2.3910 c          1 JTV       0.612100
     40 OBF         -3.5590    -0.0390     3.5980 o          1 JTV      -0.598100
     41 CBU         -2.4620    -0.2070     1.4660 c3         1 JTV      -0.150400
     42 CBV         -1.1150    -0.2900     2.1700 c3         1 JTV      -0.063400
     43 CBW          0.0410    -0.3510     1.1800 c3         1 JTV      -0.076400
     44 CBX          1.4010    -0.4410     1.8610 c3         1 JTV      -0.075400
     45 CBY          2.5660    -0.4520     0.8790 c3         1 JTV      -0.074400
     46 CBZ          3.9250    -0.5380     1.5620 c3         1 JTV      -0.075400
     47 CCA          5.0930    -0.5400     0.5840 c3         1 JTV      -0.074400
     48 CCB          6.4510    -0.6240     1.2710 c3         1 JTV      -0.074400
     49 CCC          7.6220    -0.6250     0.2960 c3         1 JTV      -0.074400
     50 CCD          8.9780    -0.7080     0.9860 c3         1 JTV      -0.074400
     51 CCE         10.1510    -0.7090     0.0140 c3         1 JTV      -0.074400
     52 CCF         11.5050    -0.7950     0.7080 c3         1 JTV      -0.074400
     53 CCG         12.6810    -0.7960    -0.2620 c3         1 JTV      -0.074400
     54 CCH         14.0330    -0.8830     0.4340 c3         1 JTV      -0.074400
     55 CCI         15.2110    -0.8850    -0.5320 c3         1 JTV      -0.074400
     56 CCJ         16.5620    -0.9750     0.1660 c3         1 JTV      -0.074400
     57 CCK         17.7410    -0.9770    -0.7990 c3         1 JTV      -0.074400
     58 CCL         19.0910    -1.0670    -0.0980 c3         1 JTV      -0.074400
     59 CCM         20.2720    -1.0700    -1.0610 c3         1 JTV      -0.074400
     60 CCN         21.6210    -1.1610    -0.3580 c3         1 JTV      -0.074400
     61 CCO         22.8030    -1.1640    -1.3200 c3         1 JTV      -0.074400
     62 CCP         24.1510    -1.2520    -0.6170 c3         1 JTV      -0.074400
     63 CCQ         25.3330    -1.2560    -1.5780 c3         1 JTV      -0.075400
     64 CCR         26.6830    -1.3390    -0.8760 c3         1 JTV      -0.074400
     65 CCS         27.8540    -1.3420    -1.8490 c3         1 JTV      -0.088100
     66 H1          -3.4870     2.7750     0.2520 h1         1 JTV       0.049700
     67 H2          -2.9790     3.7420    -1.8720 h1         1 JTV       0.049700
     68 H3          -5.2780     3.2750    -1.3170 h1         1 JTV       0.053700
     69 H4          -5.3610     6.1320    -0.2680 h1         1 JTV       0.070700
     70 H5          -5.6570     5.1660     1.9250 h2         1 JTV       0.069700
     71 H6          -1.1540     3.4370    -0.2450 h1         1 JTV       0.035200
     72 H7          -1.3750     4.9090     0.7070 h1         1 JTV       0.035200
     73 H8         -18.4480   -14.2320    -2.4540 hc         1 JTV       0.031367
     74 H9         -19.6370   -13.4710    -1.4030 hc         1 JTV       0.031367
     75 H10        -20.0020   -13.7210    -3.1070 hc         1 JTV       0.031367
     76 H11        -18.2180   -12.0870    -3.7440 hc         1 JTV       0.036700
     77 H12        -19.4090   -11.3310    -2.7120 hc         1 JTV       0.036700
     78 H13        -17.9160   -11.6770    -0.7330 hc         1 JTV       0.036700
     79 H14        -16.7240   -12.4360    -1.7660 hc         1 JTV       0.036700
     80 H15        -16.5110   -10.3170    -3.0800 hc         1 JTV       0.036700
     81 H16        -17.7080    -9.5580    -2.0530 hc         1 JTV       0.036700
     82 H17        -16.2210    -9.8990    -0.0670 hc         1 JTV       0.036700
     83 H18        -15.0240   -10.6590    -1.0930 hc         1 JTV       0.036700
     84 H19        -14.8140    -8.5430    -2.4150 hc         1 JTV       0.036700
     85 H20        -16.0140    -7.7840    -1.3920 hc         1 JTV       0.036700
     86 H21        -14.5280    -8.1130     0.5970 hc         1 JTV       0.037700
     87 H22        -13.3280    -8.8730    -0.4250 hc         1 JTV       0.037700
     88 H23        -13.1270    -6.7630    -1.7580 hc         1 JTV       0.036700
     89 H24        -14.3290    -6.0030    -0.7380 hc         1 JTV       0.036700
     90 H25        -12.8390    -6.3160     1.2520 hc         1 JTV       0.037700
     91 H26        -11.6360    -7.0740     0.2310 hc         1 JTV       0.037700
     92 H27        -11.4520    -4.9710    -1.1150 hc         1 JTV       0.036700
     93 H28        -12.6550    -4.2130    -0.0950 hc         1 JTV       0.036700
     94 H29        -11.1540    -4.5030     1.8910 hc         1 JTV       0.038700
     95 H30         -9.9500    -5.2560     0.8680 hc         1 JTV       0.038700
     96 H31         -9.7970    -3.1590    -0.4930 hc         1 JTV       0.036200
     97 H32        -10.9990    -2.4080     0.5300 hc         1 JTV       0.036200
     98 H33         -9.4790    -2.6680     2.5060 hc         1 JTV       0.044700
     99 H34         -8.2750    -3.4150     1.4750 hc         1 JTV       0.044700
    100 H35         -8.1740    -1.3160     0.0920 hc         1 JTV       0.048200
    101 H36         -9.3850    -0.5900     1.1240 hc         1 JTV       0.048200
    102 H37         -7.8240    -0.8320     3.0840 h1         1 JTV       0.067700
    103 H38         -5.9750    -1.6670     1.1420 ho         1 JTV       0.436000
    104 H39         -6.9760     0.7940     0.6610 h1         1 JTV       0.077700
    105 H40         -8.4870     1.3270     2.9700 ho         1 JTV       0.437000
    106 H41         -5.8300     0.7980     3.4770 h1         1 JTV       0.094700
    107 H42         -6.6000     3.1030     3.1440 h1         1 JTV       0.048700
    108 H43         -4.8410     2.9530     3.0610 h1         1 JTV       0.048700
    109 H44         -7.5150     5.7120     0.0060 ho         1 JTV       0.511000
    110 H45         -6.2350     4.8980    -2.7210 ho         1 JTV       0.525000
    111 H46         -0.5640     3.1230     1.9730 ho         1 JTV       0.506000
    112 H47         -2.2310     5.3330    -3.0980 h1         1 JTV       0.041700
    113 H48         -3.4090     6.6390    -2.9920 h1         1 JTV       0.041700
    114 H49         -0.0710     5.6990    -1.5250 ha         1 JTV       0.110000
    115 H50          1.7540     7.3140    -1.1930 ha         1 JTV       0.112000
    116 H51          1.4260     9.7000    -1.7730 ha         1 JTV       0.112000
    117 H52         -0.7470    10.4520    -2.6880 ha         1 JTV       0.112000
    118 H53         -2.5780     8.8340    -3.0100 ha         1 JTV       0.110000
    119 H54         -4.6050     0.8830     0.7880 hn         1 JTV       0.308500
    120 H55         -2.6990    -1.1660     0.9920 hc         1 JTV       0.050700
    121 H56         -2.4070     0.5230     0.6550 hc         1 JTV       0.050700
    122 H57         -0.9840     0.5820     2.8140 hc         1 JTV       0.057200
    123 H58         -1.0860    -1.1650     2.8250 hc         1 JTV       0.057200
    124 H59         -0.0880    -1.2060     0.5070 hc         1 JTV       0.032200
    125 H60          0.0120     0.5420     0.5450 hc         1 JTV       0.032200
    126 H61          1.5170     0.4030     2.5500 hc         1 JTV       0.040200
    127 H62          1.4390    -1.3440     2.4810 hc         1 JTV       0.040200
    128 H63          2.4520    -1.2950     0.1890 hc         1 JTV       0.035700
    129 H64          2.5260     0.4520     0.2610 hc         1 JTV       0.035700
    130 H65          4.0360     0.3030     2.2560 hc         1 JTV       0.038700
    131 H66          3.9660    -1.4440     2.1780 hc         1 JTV       0.038700
    132 H67          4.9840    -1.3810    -0.1090 hc         1 JTV       0.036700
    133 H68          5.0530     0.3660    -0.0310 hc         1 JTV       0.036700
    134 H69          6.5590     0.2170     1.9650 hc         1 JTV       0.037700
    135 H70          6.4910    -1.5300     1.8870 hc         1 JTV       0.037700
    136 H71          7.5150    -1.4660    -0.3980 hc         1 JTV       0.037200
    137 H72          7.5820     0.2810    -0.3190 hc         1 JTV       0.037200
    138 H73          9.0840     0.1330     1.6810 hc         1 JTV       0.037700
    139 H74          9.0160    -1.6140     1.6020 hc         1 JTV       0.037700
    140 H75         10.0450    -1.5500    -0.6800 hc         1 JTV       0.036700
    141 H76         10.1140     0.1970    -0.6010 hc         1 JTV       0.036700
    142 H77         11.6110     0.0460     1.4030 hc         1 JTV       0.037200
    143 H78         11.5420    -1.7010     1.3230 hc         1 JTV       0.037200
    144 H79         12.5750    -1.6360    -0.9580 hc         1 JTV       0.036700
    145 H80         12.6460     0.1110    -0.8760 hc         1 JTV       0.036700
    146 H81         14.1380    -0.0440     1.1310 hc         1 JTV       0.036700
    147 H82         14.0680    -1.7900     1.0490 hc         1 JTV       0.036700
    148 H83         15.1060    -1.7240    -1.2300 hc         1 JTV       0.036700
    149 H84         15.1780     0.0230    -1.1460 hc         1 JTV       0.036700
    150 H85         16.6660    -0.1360     0.8640 hc         1 JTV       0.037200
    151 H86         16.5940    -1.8820     0.7800 hc         1 JTV       0.037200
    152 H87         17.6370    -1.8150    -1.4960 hc         1 JTV       0.037200
    153 H88         17.7100    -0.0690    -1.4110 hc         1 JTV       0.037200
    154 H89         19.1950    -0.2290     0.6000 hc         1 JTV       0.037200
    155 H90         19.1220    -1.9760     0.5150 hc         1 JTV       0.037200
    156 H91         20.1690    -1.9090    -1.7580 hc         1 JTV       0.036700
    157 H92         20.2420    -0.1620    -1.6740 hc         1 JTV       0.036700
    158 H93         21.7240    -0.3220     0.3390 hc         1 JTV       0.036700
    159 H94         21.6510    -2.0680     0.2560 hc         1 JTV       0.036700
    160 H95         22.7000    -2.0040    -2.0160 hc         1 JTV       0.036700
    161 H96         22.7720    -0.2570    -1.9350 hc         1 JTV       0.036700
    162 H97         24.2530    -0.4120     0.0790 hc         1 JTV       0.036700
    163 H98         24.1820    -2.1590    -0.0010 hc         1 JTV       0.036700
    164 H99         25.2330    -2.0990    -2.2720 hc         1 JTV       0.036700
    165 H100        25.3010    -0.3510    -2.1960 hc         1 JTV       0.036700
    166 H101        26.7830    -0.4970    -0.1840 hc         1 JTV       0.036700
    167 H102        26.7160    -2.2430    -0.2590 hc         1 JTV       0.036700
    168 H103        27.7980    -2.1940    -2.5290 hc         1 JTV       0.031367
    169 H104        27.8610    -0.4350    -2.4580 hc         1 JTV       0.031367
    170 H105        28.8110    -1.3960    -1.3290 hc         1 JTV       0.031367
    171 CAM         -5.7750     2.7000     2.5480 c3         1 JTV       0.143600
    172 CBH         -9.0900    -2.6850     1.4810 c3         1 JTV      -0.071400
@<TRIPOS>BOND
     1     1     2 1   
     2     1     6 1   
     3     1    28 1   
     4     1    66 1   
     5     2     3 1   
     6     2    30 1   
     7     2    67 1   
     8     3     4 1   
     9     3    27 1   
    10     3    68 1   
    11     4     5 1   
    12     4    26 1   
    13     4    69 1   
    14     5    25 1   
    15     5    28 1   
    16     5    70 1   
    17     6    29 1   
    18     6    71 1   
    19     6    72 1   
    20     7     8 1   
    21     7    73 1   
    22     7    74 1   
    23     7    75 1   
    24     8     9 1   
    25     8    76 1   
    26     8    77 1   
    27     9    10 1   
    28     9    78 1   
    29     9    79 1   
    30    10    11 1   
    31    10    80 1   
    32    10    81 1   
    33    11    12 1   
    34    11    82 1   
    35    11    83 1   
    36    12    13 1   
    37    12    84 1   
    38    12    85 1   
    39    13    14 1   
    40    13    86 1   
    41    13    87 1   
    42    14    15 1   
    43    14    88 1   
    44    14    89 1   
    45    15    16 1   
    46    15    90 1   
    47    15    91 1   
    48    16    17 1   
    49    16    92 1   
    50    16    93 1   
    51    17    18 1   
    52    17    94 1   
    53    17    95 1   
    54    18    96 1   
    55    18    97 1   
    56    18   172 1   
    57    19    20 1   
    58    19   100 1   
    59    19   101 1   
    60    19   172 1   
    61    20    21 1   
    62    20    22 1   
    63    20   102 1   
    64    21   103 1   
    65    22    23 1   
    66    22    24 1   
    67    22   104 1   
    68    23   105 1   
    69    24    38 1   
    70    24   106 1   
    71    24   171 1   
    72    25   171 1   
    73    26   109 1   
    74    27   110 1   
    75    29   111 1   
    76    30    31 1   
    77    31    32 1   
    78    31   112 1   
    79    31   113 1   
    80    32    33 ar  
    81    32    37 ar  
    82    33    34 ar  
    83    33   114 1   
    84    34    35 ar  
    85    34   115 1   
    86    35    36 ar  
    87    35   116 1   
    88    36    37 ar  
    89    36   117 1   
    90    37   118 1   
    91    38    39 1   
    92    38   119 1   
    93    39    40 2   
    94    39    41 1   
    95    41    42 1   
    96    41   120 1   
    97    41   121 1   
    98    42    43 1   
    99    42   122 1   
   100    42   123 1   
   101    43    44 1   
   102    43   124 1   
   103    43   125 1   
   104    44    45 1   
   105    44   126 1   
   106    44   127 1   
   107    45    46 1   
   108    45   128 1   
   109    45   129 1   
   110    46    47 1   
   111    46   130 1   
   112    46   131 1   
   113    47    48 1   
   114    47   132 1   
   115    47   133 1   
   116    48    49 1   
   117    48   134 1   
   118    48   135 1   
   119    49    50 1   
   120    49   136 1   
   121    49   137 1   
   122    50    51 1   
   123    50   138 1   
   124    50   139 1   
   125    51    52 1   
   126    51   140 1   
   127    51   141 1   
   128    52    53 1   
   129    52   142 1   
   130    52   143 1   
   131    53    54 1   
   132    53   144 1   
   133    53   145 1   
   134    54    55 1   
   135    54   146 1   
   136    54   147 1   
   137    55    56 1   
   138    55   148 1   
   139    55   149 1   
   140    56    57 1   
   141    56   150 1   
   142    56   151 1   
   143    57    58 1   
   144    57   152 1   
   145    57   153 1   
   146    58    59 1   
   147    58   154 1   
   148    58   155 1   
   149    59    60 1   
   150    59   156 1   
   151    59   157 1   
   152    60    61 1   
   153    60   158 1   
   154    60   159 1   
   155    61    62 1   
   156    61   160 1   
   157    61   161 1   
   158    62    63 1   
   159    62   162 1   
   160    62   163 1   
   161    63    64 1   
   162    63   164 1   
   163    63   165 1   
   164    64    65 1   
   165    64   166 1   
   166    64   167 1   
   167    65   168 1   
   168    65   169 1   
   169    65   170 1   
   170    98   172 1   
   171    99   172 1   
   172   107   171 1   
   173   108   171 1   
@<TRIPOS>SUBSTRUCTURE
     1 JTV         1 TEMP              0 ****  ****    0 ROOT
