@<TRIPOS>MOLECULE
JTW
   41    42     1     0     0
SMALL
bcc


@<TRIPOS>ATOM
      1 C12          0.8070    -1.9640    -0.4050 c          1 JTW       0.678700
      2 C21          2.8400     1.1110    -0.0340 ca         1 JTW      -0.257500
      3 C22          2.6590     2.3870    -0.5560 ca         1 JTW      -0.019500
      4 C23          3.5310     2.8400    -1.5320 ca         1 JTW      -0.145500
      5 C5          -2.4010     0.0170    -0.5030 ca         1 JTW      -0.219500
      6 C6          -2.0380     1.2110     0.1080 ca         1 JTW       0.110400
      7 C8           0.1610     0.3380     0.4810 ca         1 JTW      -0.159500
      8 C9          -0.1810    -0.8620    -0.1340 ca         1 JTW      -0.079600
      9 C10         -1.4740    -1.0090    -0.6150 ca         1 JTW      -0.032000
     10 O20          2.1980    -0.7350     1.7420 o          1 JTW      -0.594800
     11 O19          1.6070     1.6710     2.1970 o          1 JTW      -0.594800
     12 C25          3.8810     0.2940    -0.4460 ca         1 JTW      -0.019500
     13 C26          4.7560     0.7670    -1.4130 ca         1 JTW      -0.145500
     14 C24          4.5790     2.0320    -1.9570 ca         1 JTW      -0.069000
     15 C7          -0.7590     1.3630     0.6190 ca         1 JTW      -0.067000
     16 CL1         -3.1390     2.5160     0.2880 cl         1 JTW      -0.058400
     17 S2          -4.0290    -0.2400    -1.1950 sy         1 JTW       1.303200
     18 O3          -4.3250     0.8730    -2.0760 o          1 JTW      -0.606300
     19 O4          -4.0340    -1.5940    -1.7200 o          1 JTW      -0.606300
     20 N1          -4.9890    -0.1130     0.1200 n8         1 JTW      -0.934700
     21 O13          1.7270    -1.7730    -1.1810 o          1 JTW      -0.597100
     22 N14          0.5290    -3.1230     0.1950 ns         1 JTW      -0.534900
     23 C15          1.3820    -4.2880     0.0880 c3         1 JTW       0.098000
     24 C16          2.4690    -4.3190     1.1430 c3         1 JTW       0.114400
     25 O17          1.8620    -4.4000     2.4120 oh         1 JTW      -0.605800
     26 H1           1.8540     3.0260    -0.2150 ha         1 JTW       0.151500
     27 H2           3.3970     3.8270    -1.9520 ha         1 JTW       0.138500
     28 H3          -1.7610    -1.9370    -1.0910 ha         1 JTW       0.173000
     29 H4           4.0160    -0.6940    -0.0300 ha         1 JTW       0.151500
     30 H5           5.5740     0.1430    -1.7440 ha         1 JTW       0.138500
     31 H6           5.2630     2.3930    -2.7140 ha         1 JTW       0.135000
     32 H7          -0.4960     2.2810     1.1250 ha         1 JTW       0.177000
     33 H8          -5.2080    -0.9950     0.5680 hn         1 JTW       0.439300
     34 H9          -5.7990     0.4780    -0.0150 hn         1 JTW       0.439300
     35 H10         -0.1860    -3.1350     0.9050 hn         1 JTW       0.329500
     36 H11          0.7520    -5.1750     0.1660 h1         1 JTW       0.065700
     37 H12          1.8390    -4.3040    -0.9000 h1         1 JTW       0.065700
     38 H13          3.1160    -5.1830     0.9430 h1         1 JTW       0.035200
     39 H14          3.0900    -3.4220     1.0460 h1         1 JTW       0.035200
     40 H15          2.5230    -4.1940     3.0780 ho         1 JTW       0.413000
     41 S18          1.7610     0.5670     1.2560 sy         1 JTW       1.154600
@<TRIPOS>BOND
     1     1     8 1   
     2     1    21 2   
     3     1    22 1   
     4     2     3 ar  
     5     2    12 ar  
     6     2    41 1   
     7     3     4 ar  
     8     3    26 1   
     9     4    14 ar  
    10     4    27 1   
    11     5     6 ar  
    12     5     9 ar  
    13     5    17 1   
    14     6    15 ar  
    15     6    16 1   
    16     7     8 ar  
    17     7    15 ar  
    18     7    41 1   
    19     8     9 ar  
    20     9    28 1   
    21    10    41 2   
    22    11    41 2   
    23    12    13 ar  
    24    12    29 1   
    25    13    14 ar  
    26    13    30 1   
    27    14    31 1   
    28    15    32 1   
    29    17    18 2   
    30    17    19 2   
    31    17    20 1   
    32    20    33 1   
    33    20    34 1   
    34    22    23 1   
    35    22    35 1   
    36    23    24 1   
    37    23    36 1   
    38    23    37 1   
    39    24    25 1   
    40    24    38 1   
    41    24    39 1   
    42    25    40 1   
@<TRIPOS>SUBSTRUCTURE
     1 JTW         1 TEMP              0 ****  ****    0 ROOT
