@<TRIPOS>MOLECULE
JTW
   41    42     1     0     0
SMALL
No Charge or Current Charge


@<TRIPOS>ATOM
      1 C12          0.9440    -1.9040    -0.2130 c          1 JTW       0.611700
      2 C21          2.9490     1.2910     0.0020 ca         1 JTW      -0.257500
      3 C22          2.6040     2.4210    -0.7680 ca         1 JTW      -0.001500
      4 C23          3.4210     2.8170    -1.8410 ca         1 JTW      -0.127500
      5 C5          -2.3490     0.0330    -0.4130 ca         1 JTW      -0.219500
      6 C6          -2.0170     1.2610     0.1950 ca         1 JTW       0.202000
      7 C8           0.2720     0.4600     0.6090 ca         1 JTW      -0.159500
      8 C9          -0.0540    -0.7820    -0.0150 ca         1 JTW      -0.079600
      9 C10         -1.3660    -0.9760    -0.5070 ca         1 JTW      -0.014000
     10 O20          2.4200    -0.4440     1.9580 o          1 JTW      -0.524000
     11 O19          1.7280     1.9930     2.2260 o          1 JTW      -0.524000
     12 C25          4.1200     0.5660    -0.3050 ca         1 JTW      -0.001500
     13 C26          4.9330     0.9690    -1.3790 ca         1 JTW      -0.127500
     14 C24          4.5850     2.0920    -2.1480 ca         1 JTW      -0.051000
     15 C7          -0.7220     1.4620     0.6970 ca         1 JTW      -0.049000
     16 Cl1         -3.1740     2.5810     0.3940 cl         1 JTW      -0.150000
     17 S2          -3.9900    -0.2840    -1.0810 sy         1 JTW       1.161600
     18 O3          -4.5120     0.8790    -1.7920 o          1 JTW      -0.535500
     19 O4          -4.0700    -1.6280    -1.6470 o          1 JTW      -0.535500
     20 N1          -4.9390    -0.3680     0.2420 n8         1 JTW      -1.045100
     21 O13          2.0580    -1.7320    -0.6840 o          1 JTW      -0.597100
     22 N14          0.4690    -3.1690     0.0630 ns         1 JTW      -0.467900
     23 C15          1.2700    -4.3980    -0.0380 c3         1 JTW       0.098000
     24 C16          2.2530    -4.5770     1.1440 c3         1 JTW       0.137600
     25 O17          1.5370    -4.6950     2.3850 oh         1 JTW      -0.668000
     26 H1           1.7060     2.9940    -0.5390 ha         1 JTW       0.133500
     27 H2           3.1520     3.6880    -2.4340 ha         1 JTW       0.120500
     28 H3          -1.6130    -1.9150    -1.0010 ha         1 JTW       0.155000
     29 H4           4.4030    -0.3080     0.2790 ha         1 JTW       0.133500
     30 H5           5.8340     0.4070    -1.6160 ha         1 JTW       0.120500
     31 H6           5.2160     2.4010    -2.9790 ha         1 JTW       0.117000
     32 H7          -0.5060     2.4150     1.1730 ha         1 JTW       0.159000
     33 H8          -5.4660    -1.2120     0.0280 hn         1 JTW       0.494500
     34 H9          -5.6120     0.3630     0.0170 hn         1 JTW       0.494500
     35 H10         -0.4530    -3.2310     0.4760 hn         1 JTW       0.329500
     36 H11          0.5920    -5.2600    -0.0800 h1         1 JTW       0.065700
     37 H12          1.8380    -4.3780    -0.9780 h1         1 JTW       0.065700
     38 H13          2.8570    -5.4780     0.9670 h1         1 JTW       0.035200
     39 H14          2.9380    -3.7190     1.1760 h1         1 JTW       0.035200
     40 H15          2.2090    -4.7590     3.1010 ho         1 JTW       0.452000
     41 S18          1.8910     0.8010     1.3820 sy         1 JTW       1.013000
@<TRIPOS>BOND
     1     1     8 1   
     2     1    21 2   
     3     1    22 1   
     4     2     3 ar  
     5     2    12 ar  
     6     2    41 1   
     7     3     4 ar  
     8     3    26 1   
     9     4    14 ar  
    10     4    27 1   
    11     5     6 ar  
    12     5     9 ar  
    13     5    17 1   
    14     6    15 ar  
    15     6    16 1   
    16     7     8 ar  
    17     7    15 ar  
    18     7    41 1   
    19     8     9 ar  
    20     9    28 1   
    21    10    41 2   
    22    11    41 2   
    23    12    13 ar  
    24    12    29 1   
    25    13    14 ar  
    26    13    30 1   
    27    14    31 1   
    28    15    32 1   
    29    17    18 2   
    30    17    19 2   
    31    17    20 1   
    32    20    33 1   
    33    20    34 1   
    34    22    23 1   
    35    22    35 1   
    36    23    24 1   
    37    23    36 1   
    38    23    37 1   
    39    24    25 1   
    40    24    38 1   
    41    24    39 1   
    42    25    40 1   
@<TRIPOS>SUBSTRUCTURE
     1 JTW         1 TEMP              0 ****  ****    0 ROOT
