@<TRIPOS>MOLECULE
JTX
   46    49     1     0     0
SMALL
No Charge or Current Charge


@<TRIPOS>ATOM
      1 C11         92.4360   -10.0880    11.6160 c3         1 JTX      -0.073700
      2 C13         93.6900   -11.9870    10.4700 cc         1 JTX       0.461800
      3 C15         93.8030   -13.0690     8.6850 cd         1 JTX       0.812900
      4 C19         94.1990   -14.1760     6.4630 c5         1 JTX       0.239800
      5 C20         93.1530   -14.8980     5.5740 c5         1 JTX      -0.095900
      6 C21         92.4050   -15.7670     6.6210 c5         1 JTX      -0.095900
      7 C22         92.1640   -14.7400     7.7580 c5         1 JTX       0.239800
      8 N1          90.3490    -7.9830    16.6910 nc         1 JTX      -0.718000
      9 C2          91.5850    -7.3360    16.7340 cc         1 JTX       0.431900
     10 C3          92.5510    -7.4630    15.7460 cd         1 JTX      -0.252300
     11 C4          92.1940    -8.3130    14.6600 cd         1 JTX      -0.003000
     12 N5          90.9980    -8.9440    14.6110 na         1 JTX       0.047900
     13 C6          90.0580    -8.7770    15.6430 cd         1 JTX       0.614800
     14 C7          88.7230    -9.4660    15.6140 c3         1 JTX      -0.152400
     15 N8          92.8800    -8.6340    13.5880 nc         1 JTX      -0.390300
     16 C9          92.0200    -9.4760    12.9250 cc         1 JTX       0.550300
     17 N10         90.8410    -9.7170    13.4910 nd         1 JTX      -0.574100
     18 C12         93.2570   -11.3910    11.7830 c3         1 JTX      -0.103700
     19 N14         93.0030   -12.8690     9.7740 nd         1 JTX      -0.765000
     20 N16         94.9300   -12.3900     8.6270 nc         1 JTX      -0.614800
     21 N17         94.8550   -11.6860     9.7870 na         1 JTX      -0.077700
     22 N18         93.4140   -13.9490     7.6980 nh         1 JTX      -0.799300
     23 F25         94.0220    -6.0000    16.9260 f          1 JTX      -0.104000
     24 F26         94.9160    -7.6300    15.8080 f          1 JTX      -0.104000
     25 F27         94.0630    -5.9250    14.7580 f          1 JTX      -0.104000
     26 H35         91.5420   -10.2990    11.0170 hc         1 JTX       0.084700
     27 H34         93.0210    -9.3560    11.0480 hc         1 JTX       0.084700
     28 H38         94.5510   -13.2430     6.0020 h1         1 JTX       0.050200
     29 H39         95.0700   -14.8170     6.6630 h1         1 JTX       0.050200
     30 H41         92.4770   -14.1800     5.0950 hc         1 JTX       0.052200
     31 H40         93.6190   -15.4920     4.7800 hc         1 JTX       0.052200
     32 H43         91.4710   -16.1900     6.2360 hc         1 JTX       0.052200
     33 H42         93.0280   -16.6010     6.9650 hc         1 JTX       0.052200
     34 H44         92.0170   -15.2360     8.7280 h1         1 JTX       0.050200
     35 H45         91.2880   -14.1090     7.5530 h1         1 JTX       0.050200
     36 H46         95.4880    -9.7570    10.3770 h1         1 JTX       0.055700
     37 H47         96.4100   -11.1110    11.0970 h1         1 JTX       0.055700
     38 H48         96.6680   -10.6620     9.3860 h1         1 JTX       0.055700
     39 H30         91.7270    -6.7210    17.6130 h4         1 JTX       0.050100
     40 H32         88.1240    -9.2200    16.4980 hc         1 JTX       0.080700
     41 H33         88.1550    -9.1660    14.7270 hc         1 JTX       0.080700
     42 H31         88.8520   -10.5530    15.5850 hc         1 JTX       0.080700
     43 H36         94.1370   -11.1900    12.4050 hc         1 JTX       0.068700
     44 H37         92.6560   -12.1250    12.3320 hc         1 JTX       0.068700
     45 C23         95.9200   -10.7470    10.1850 c3         1 JTX       0.080900
     46 C24         93.8860    -6.7540    15.8120 c3         1 JTX       0.374300
@<TRIPOS>BOND
     1     1    16 1   
     2     1    18 1   
     3     1    26 1   
     4     1    27 1   
     5     2    18 1   
     6     2    19 2   
     7     2    21 1   
     8     3    19 1   
     9     3    20 2   
    10     3    22 1   
    11     4     5 1   
    12     4    22 1   
    13     4    28 1   
    14     4    29 1   
    15     5     6 1   
    16     5    30 1   
    17     5    31 1   
    18     6     7 1   
    19     6    32 1   
    20     6    33 1   
    21     7    22 1   
    22     7    34 1   
    23     7    35 1   
    24     8     9 1   
    25     8    13 2   
    26     9    10 2   
    27     9    39 1   
    28    10    11 1   
    29    10    46 1   
    30    11    12 1   
    31    11    15 2   
    32    12    13 1   
    33    12    17 1   
    34    13    14 1   
    35    14    40 1   
    36    14    41 1   
    37    14    42 1   
    38    15    16 1   
    39    16    17 2   
    40    18    43 1   
    41    18    44 1   
    42    20    21 1   
    43    21    45 1   
    44    23    46 1   
    45    24    46 1   
    46    25    46 1   
    47    36    45 1   
    48    37    45 1   
    49    38    45 1   
@<TRIPOS>SUBSTRUCTURE
     1 JTX         1 TEMP              0 ****  ****    0 ROOT
