@<TRIPOS>MOLECULE
JTX
   46    49     1     0     0
SMALL
abcg2


@<TRIPOS>ATOM
      1 C11         92.1620   -10.5660    11.7480 c3         1 JTX      -0.073700
      2 C13         93.9470   -11.7850    10.4610 cc         1 JTX       0.461800
      3 C15         93.8590   -12.8940     8.6530 cd         1 JTX       0.812900
      4 C19         94.2080   -14.1980     6.5960 c5         1 JTX       0.239800
      5 C20         93.2020   -14.7600     5.5900 c5         1 JTX      -0.095900
      6 C21         91.9860   -15.0950     6.4630 c5         1 JTX      -0.095900
      7 C22         91.9500   -13.9520     7.4830 c5         1 JTX       0.239800
      8 N1          90.3550    -8.0230    16.6840 nc         1 JTX      -0.718000
      9 C2          91.4280    -7.2110    16.5020 cc         1 JTX       0.431900
     10 C3          92.2980    -7.3180    15.4490 cd         1 JTX      -0.252300
     11 C4          92.0420    -8.3400    14.5120 cd         1 JTX      -0.003000
     12 N5          90.9380    -9.1380    14.7520 na         1 JTX       0.047900
     13 C6          90.1120    -8.9780    15.8240 cd         1 JTX       0.614800
     14 C7          88.9630    -9.9060    15.9680 c3         1 JTX      -0.152400
     15 N8          92.6350    -8.7430    13.4000 nc         1 JTX      -0.390300
     16 C9          91.8690    -9.7930    12.9860 cc         1 JTX       0.550300
     17 N10         90.8350   -10.0750    13.7690 nd         1 JTX      -0.574100
     18 C12         93.6140   -11.0530    11.7180 c3         1 JTX      -0.103700
     19 N14         93.0700   -12.3340     9.6230 nd         1 JTX      -0.765000
     20 N16         95.1660   -12.7220     8.8500 nc         1 JTX      -0.614800
     21 N17         95.1940   -11.9960    10.0200 na         1 JTX      -0.077700
     22 N18         93.3530   -13.5490     7.5840 nh         1 JTX      -0.799300
     23 F25         93.5740    -5.5050    16.2560 f          1 JTX      -0.104000
     24 F26         94.6430    -7.1070    15.2600 f          1 JTX      -0.104000
     25 F27         93.4250    -5.7380    14.1040 f          1 JTX      -0.104000
     26 H35         91.4700   -11.4030    11.6810 hc         1 JTX       0.084700
     27 H34         91.9800    -9.9210    10.8840 hc         1 JTX       0.084700
     28 H38         94.9020   -13.4820     6.1520 h1         1 JTX       0.050200
     29 H39         94.8030   -14.9970     7.0570 h1         1 JTX       0.050200
     30 H41         92.9400   -13.9920     4.8590 hc         1 JTX       0.052200
     31 H40         93.5940   -15.6220     5.0530 hc         1 JTX       0.052200
     32 H43         91.0600   -15.1720     5.8960 hc         1 JTX       0.052200
     33 H42         92.1500   -16.0440     6.9790 hc         1 JTX       0.052200
     34 H44         91.5630   -14.2670     8.4530 h1         1 JTX       0.050200
     35 H45         91.3300   -13.1200     7.1300 h1         1 JTX       0.050200
     36 H46         97.0400   -11.0400     9.8790 h1         1 JTX       0.055700
     37 H47         96.2940   -11.0260    11.4900 h1         1 JTX       0.055700
     38 H48         97.0280   -12.5170    10.8700 h1         1 JTX       0.055700
     39 H30         91.5710    -6.4460    17.2540 h4         1 JTX       0.050100
     40 H32         88.4110    -9.6570    16.8690 hc         1 JTX       0.080700
     41 H33         88.3080    -9.8320    15.0970 hc         1 JTX       0.080700
     42 H31         89.3160   -10.9380    16.0180 hc         1 JTX       0.080700
     43 H36         94.2830   -10.2000    11.8320 hc         1 JTX       0.068700
     44 H37         93.7990   -11.7090    12.5760 hc         1 JTX       0.068700
     45 C23         96.4650   -11.6230    10.5990 c3         1 JTX       0.080900
     46 C24         93.4800    -6.4170    15.2730 c3         1 JTX       0.374300
@<TRIPOS>BOND
     1     1    16 1   
     2     1    18 1   
     3     1    26 1   
     4     1    27 1   
     5     2    18 1   
     6     2    19 2   
     7     2    21 1   
     8     3    19 1   
     9     3    20 2   
    10     3    22 1   
    11     4     5 1   
    12     4    22 1   
    13     4    28 1   
    14     4    29 1   
    15     5     6 1   
    16     5    30 1   
    17     5    31 1   
    18     6     7 1   
    19     6    32 1   
    20     6    33 1   
    21     7    22 1   
    22     7    34 1   
    23     7    35 1   
    24     8     9 1   
    25     8    13 2   
    26     9    10 2   
    27     9    39 1   
    28    10    11 1   
    29    10    46 1   
    30    11    12 1   
    31    11    15 2   
    32    12    13 1   
    33    12    17 1   
    34    13    14 1   
    35    14    40 1   
    36    14    41 1   
    37    14    42 1   
    38    15    16 1   
    39    16    17 2   
    40    18    43 1   
    41    18    44 1   
    42    20    21 1   
    43    21    45 1   
    44    23    46 1   
    45    24    46 1   
    46    25    46 1   
    47    36    45 1   
    48    37    45 1   
    49    38    45 1   
@<TRIPOS>SUBSTRUCTURE
     1 JTX         1 TEMP              0 ****  ****    0 ROOT
