@<TRIPOS>MOLECULE
JTY
   25    26     1     0     0
SMALL
No Charge or Current Charge


@<TRIPOS>ATOM
      1 C2           1.1270     0.1280     0.5380 cc         1 JTY       0.111000
      2 C3           1.9600     0.2740    -0.5730 cd         1 JTY       0.201500
      3 N4           2.3460     1.6050    -0.8120 nd         1 JTY      -0.582000
      4 C5           1.8120     2.4050     0.0980 cc         1 JTY       0.377300
      5 C6           2.3670    -0.9340    -1.4100 c          1 JTY       0.635500
      6 O11         -1.2830    -0.9430     2.6560 o          1 JTY      -0.558000
      7 C13         -1.8890    -0.2480     0.1250 ca         1 JTY      -0.292500
      8 C14         -2.5230     0.9210     0.5930 ca         1 JTY      -0.002500
      9 O8           3.1030    -0.7610    -2.3750 o          1 JTY      -0.687500
     10 O7           1.9530    -2.0510    -1.1100 o          1 JTY      -0.687500
     11 S1           0.8220     1.6560     1.3140 ss         1 JTY      -0.104400
     12 N9           0.5970    -1.0520     1.0340 nu         1 JTY      -0.829100
     13 S10         -1.0340    -1.3400     1.2680 sy         1 JTY       1.124600
     14 O12         -1.1550    -2.7260     0.8140 o          1 JTY      -0.558000
     15 C18         -1.9070    -0.5530    -1.2520 ca         1 JTY      -0.002500
     16 C17         -2.5580     0.3080    -2.1520 ca         1 JTY      -0.135500
     17 C16         -3.1910     1.4730    -1.6850 ca         1 JTY      -0.066000
     18 C15         -3.1720     1.7770    -0.3130 ca         1 JTY      -0.135500
     19 H1           1.9590     3.4770     0.1280 h5         1 JTY       0.028100
     20 H2          -2.5120     1.1730     1.6530 ha         1 JTY       0.136500
     21 H4           0.8580    -1.8540     0.4560 hn         1 JTY       0.572000
     22 H5          -1.4170    -1.4500    -1.6270 ha         1 JTY       0.136500
     23 H6          -2.5710     0.0730    -3.2140 ha         1 JTY       0.108000
     24 H7          -3.6930     2.1380    -2.3840 ha         1 JTY       0.101000
     25 H8          -3.6600     2.6790     0.0490 ha         1 JTY       0.108000
@<TRIPOS>BOND
     1     1     2 2   
     2     1    11 1   
     3     1    12 1   
     4     2     3 1   
     5     2     5 1   
     6     3     4 2   
     7     4    11 1   
     8     4    19 1   
     9     5     9 1   
    10     5    10 1   
    11     6    13 2   
    12     7     8 ar  
    13     7    13 1   
    14     7    15 ar  
    15     8    18 ar  
    16     8    20 1   
    17    12    13 1   
    18    12    21 1   
    19    13    14 2   
    20    15    16 ar  
    21    15    22 1   
    22    16    17 ar  
    23    16    23 1   
    24    17    18 ar  
    25    17    24 1   
    26    18    25 1   
@<TRIPOS>SUBSTRUCTURE
     1 JTY         1 TEMP              0 ****  ****    0 ROOT
