@<TRIPOS>MOLECULE
JTY
   25    26     1     0     0
SMALL
bcc


@<TRIPOS>ATOM
      1 C2           1.1770     0.1020     0.6870 cc         1 JTY       0.052200
      2 C3           1.8810     0.4950    -0.4190 cd         1 JTY       0.266800
      3 N4           2.4610     1.7270    -0.3050 nd         1 JTY      -0.582000
      4 C5           2.2130     2.2640     0.8390 cc         1 JTY       0.377300
      5 C6           2.0160    -0.3580    -1.6540 c          1 JTY       0.846100
      6 O11         -1.1200    -0.4670     2.5510 o          1 JTY      -0.628800
      7 C13         -1.9100    -0.2940     0.0580 ca         1 JTY      -0.292500
      8 C14         -2.2460     1.0330     0.2860 ca         1 JTY      -0.020500
      9 O8           2.5950     0.1270    -2.6300 o          1 JTY      -0.792800
     10 O7           1.5100    -1.5110    -1.5710 o          1 JTY      -0.792800
     11 S1           1.2470     1.3110     1.9100 ss         1 JTY      -0.249300
     12 N9           0.5680    -1.1370     0.8310 nu         1 JTY      -0.635500
     13 S10         -1.0250    -1.1950     1.2970 sy         1 JTY       1.266200
     14 O12         -1.3990    -2.5950     1.2300 o          1 JTY      -0.628800
     15 C18         -2.1940    -0.9220    -1.1490 ca         1 JTY      -0.020500
     16 C17         -2.8370    -0.2020    -2.1420 ca         1 JTY      -0.153500
     17 C16         -3.1810     1.1280    -1.9290 ca         1 JTY      -0.084000
     18 C15         -2.8860     1.7430    -0.7200 ca         1 JTY      -0.153500
     19 H1           2.5470     3.2470     1.1400 h5         1 JTY       0.028100
     20 H2          -2.0250     1.5100     1.2300 ha         1 JTY       0.154500
     21 H4           0.7880    -1.6570    -0.0580 hn         1 JTY       0.516800
     22 H5          -1.9290    -1.9570    -1.3170 ha         1 JTY       0.154500
     23 H6          -3.0710    -0.6790    -3.0840 ha         1 JTY       0.126000
     24 H7          -3.6820     1.6850    -2.7090 ha         1 JTY       0.119000
     25 H8          -3.1580     2.7770    -0.5530 ha         1 JTY       0.126000
@<TRIPOS>BOND
     1     1     2 2   
     2     1    11 1   
     3     1    12 1   
     4     2     3 1   
     5     2     5 1   
     6     3     4 2   
     7     4    11 1   
     8     4    19 1   
     9     5     9 1   
    10     5    10 1   
    11     6    13 2   
    12     7     8 ar  
    13     7    13 1   
    14     7    15 ar  
    15     8    18 ar  
    16     8    20 1   
    17    12    13 1   
    18    12    21 1   
    19    13    14 2   
    20    15    16 ar  
    21    15    22 1   
    22    16    17 ar  
    23    16    23 1   
    24    17    18 ar  
    25    17    24 1   
    26    18    25 1   
@<TRIPOS>SUBSTRUCTURE
     1 JTY         1 TEMP              0 ****  ****    0 ROOT
