@<TRIPOS>MOLECULE
JTZ
   41    41     1     0     0
SMALL
bcc


@<TRIPOS>ATOM
      1 C1           5.7440    -1.0410     0.5150 c3         1 JTZ      -0.107600
      2 N1           3.9450     0.5380    -0.2400 n7         1 JTZ      -0.807200
      3 O1           1.4570     0.9250     1.1870 oh         1 JTZ      -0.575800
      4 C2           5.2660    -0.0140    -0.5130 c3         1 JTZ       0.174500
      5 O2          -0.8350    -0.0300    -0.0720 os         1 JTZ      -0.309900
      6 C3           6.2610     1.1330    -0.6230 c3         1 JTZ      -0.107600
      7 C4           2.8600    -0.4170    -0.2780 c3         1 JTZ       0.133800
      8 C5           1.5200     0.2780    -0.0650 c3         1 JTZ       0.138100
      9 C6           0.3860    -0.7150    -0.2520 c3         1 JTZ       0.106400
     10 C7          -1.9860    -0.7310    -0.0640 ca         1 JTZ       0.142100
     11 C8          -2.0790    -2.0730    -0.4270 ca         1 JTZ      -0.217000
     12 C9          -3.3130    -2.7130    -0.4040 ca         1 JTZ      -0.094000
     13 C10         -4.4530    -2.0270    -0.0200 ca         1 JTZ      -0.163000
     14 C11         -4.3480    -0.6900     0.3440 ca         1 JTZ      -0.092000
     15 C12         -3.1310    -0.0240     0.3360 ca         1 JTZ      -0.102300
     16 C13         -3.0480     1.4320     0.7210 c3         1 JTZ       0.008100
     17 C14         -3.0820     2.3230    -0.4860 c2         1 JTZ      -0.151200
     18 C15         -4.0410     3.2060    -0.7390 c2         1 JTZ      -0.230000
     19 H1           5.8320    -0.5800     1.5030 hc         1 JTZ       0.037700
     20 H1A          5.0620    -1.8870     0.6010 hc         1 JTZ       0.037700
     21 H1B          6.7240    -1.4390     0.2450 hc         1 JTZ       0.037700
     22 HN1          3.9600     0.9910     0.6680 hn         1 JTZ       0.364800
     23 HO1          1.5560     0.2630     1.8810 ho         1 JTZ       0.394000
     24 H2           5.2050    -0.5110    -1.4880 h1         1 JTZ       0.054700
     25 H3           7.2570     0.7660    -0.8760 hc         1 JTZ       0.037700
     26 H3A          5.9570     1.8490    -1.3870 hc         1 JTZ       0.037700
     27 H3B          6.3390     1.6670     0.3280 hc         1 JTZ       0.037700
     28 H4           2.8570    -0.8980    -1.2620 h1         1 JTZ       0.030200
     29 H4A          2.9510    -1.2300     0.4610 h1         1 JTZ       0.030200
     30 H5           1.4200     1.0710    -0.8120 h1         1 JTZ       0.102700
     31 H6           0.4750    -1.5360     0.4730 h1         1 JTZ       0.035700
     32 H6A          0.4480    -1.1530    -1.2540 h1         1 JTZ       0.035700
     33 H8          -1.2050    -2.6300    -0.7350 ha         1 JTZ       0.131000
     34 H9          -3.3720    -3.7560    -0.6890 ha         1 JTZ       0.128000
     35 H10         -5.4140    -2.5230    -0.0020 ha         1 JTZ       0.133000
     36 H11         -5.2350    -0.1480     0.6520 ha         1 JTZ       0.132000
     37 H13         -3.8830     1.6780     1.3800 hc         1 JTZ       0.057200
     38 H13A        -2.1310     1.6170     1.2860 hc         1 JTZ       0.057200
     39 H14         -2.2630     2.2100    -1.1900 ha         1 JTZ       0.126000
     40 H15         -4.8770     3.3470    -0.0640 ha         1 JTZ       0.108500
     41 H15A        -4.0260     3.8190    -1.6310 ha         1 JTZ       0.108500
@<TRIPOS>BOND
     1     1     4 1   
     2     1    19 1   
     3     1    20 1   
     4     1    21 1   
     5     2     4 1   
     6     2     7 1   
     7     2    22 1   
     8     3     8 1   
     9     3    23 1   
    10     4     6 1   
    11     4    24 1   
    12     5     9 1   
    13     5    10 1   
    14     6    25 1   
    15     6    26 1   
    16     6    27 1   
    17     7     8 1   
    18     7    28 1   
    19     7    29 1   
    20     8     9 1   
    21     8    30 1   
    22     9    31 1   
    23     9    32 1   
    24    10    11 ar  
    25    10    15 ar  
    26    11    12 ar  
    27    11    33 1   
    28    12    13 ar  
    29    12    34 1   
    30    13    14 ar  
    31    13    35 1   
    32    14    15 ar  
    33    14    36 1   
    34    15    16 1   
    35    16    17 1   
    36    16    37 1   
    37    16    38 1   
    38    17    18 2   
    39    17    39 1   
    40    18    40 1   
    41    18    41 1   
@<TRIPOS>SUBSTRUCTURE
     1 JTZ         1 TEMP              0 ****  ****    0 ROOT
