@<TRIPOS>MOLECULE
JTZ
   41    41     1     0     0
SMALL
No Charge or Current Charge


@<TRIPOS>ATOM
      1 C1           5.8620    -0.8710     0.6900 c3         1 JTZ      -0.107600
      2 N1           4.0470     0.4910    -0.3210 n7         1 JTZ      -0.862400
      3 O1           1.5640     0.6970     1.2080 oh         1 JTZ      -0.638000
      4 C2           5.4210    -0.0090    -0.5130 c3         1 JTZ       0.174500
      5 O2          -0.8210    -0.1870     0.0740 os         1 JTZ      -0.333100
      6 C3           6.3560     1.1980    -0.7200 c3         1 JTZ      -0.107600
      7 C4           2.9450    -0.4930    -0.4480 c3         1 JTZ       0.133800
      8 C5           1.5690     0.1570    -0.1340 c3         1 JTZ       0.161300
      9 C6           0.4040    -0.8500    -0.2970 c3         1 JTZ       0.129600
     10 C7          -2.0510    -0.8180     0.0250 ca         1 JTZ       0.142100
     11 C8          -2.1780    -2.1680    -0.3740 ca         1 JTZ      -0.199000
     12 C9          -3.4430    -2.7770    -0.4190 ca         1 JTZ      -0.076000
     13 C10         -4.5870    -2.0440    -0.0690 ca         1 JTZ      -0.145000
     14 C11         -4.4690    -0.7030     0.3290 ca         1 JTZ      -0.074000
     15 C12         -3.2050    -0.0820     0.3820 ca         1 JTZ      -0.102300
     16 C13         -3.1100     1.3800     0.8150 c3         1 JTZ       0.008100
     17 C14         -3.0560     2.3230    -0.3690 c2         1 JTZ      -0.201200
     18 C15         -3.9070     3.3370    -0.5960 c2         1 JTZ      -0.330000
     19 H1           5.7830    -0.3080     1.6280 hc         1 JTZ       0.037700
     20 H1A          5.2520    -1.7770     0.7760 hc         1 JTZ       0.037700
     21 H1B          6.9050    -1.1860     0.5700 hc         1 JTZ       0.037700
     22 HN1          3.9780     0.9130     0.6140 hn         1 JTZ       0.420000
     23 HO1          0.6200     0.8460     1.4310 ho         1 JTZ       0.433000
     24 H2           5.4740    -0.6270    -1.4220 h1         1 JTZ       0.054700
     25 H3           7.3840     0.8620    -0.8970 hc         1 JTZ       0.037700
     26 H3A          6.0400     1.7890    -1.5880 hc         1 JTZ       0.037700
     27 H3B          6.3570     1.8520     0.1610 hc         1 JTZ       0.037700
     28 H4           2.9220    -0.9030    -1.4670 h1         1 JTZ       0.030200
     29 H4A          3.0930    -1.3340     0.2420 h1         1 JTZ       0.030200
     30 H5           1.4080     0.9640    -0.8640 h1         1 JTZ       0.102700
     31 H6           0.5820    -1.7230     0.3450 h1         1 JTZ       0.035700
     32 H6A          0.3610    -1.1870    -1.3410 h1         1 JTZ       0.035700
     33 H8          -1.3110    -2.7590    -0.6530 ha         1 JTZ       0.113000
     34 H9          -3.5370    -3.8170    -0.7270 ha         1 JTZ       0.110000
     35 H10         -5.5670    -2.5160    -0.1060 ha         1 JTZ       0.115000
     36 H11         -5.3640    -0.1440     0.5950 ha         1 JTZ       0.114000
     37 H13         -3.9600     1.6330     1.4610 hc         1 JTZ       0.057200
     38 H13A        -2.2220     1.5280     1.4430 hc         1 JTZ       0.057200
     39 H14         -2.2390     2.1200    -1.0660 ha         1 JTZ       0.176000
     40 H15         -4.7310     3.5610     0.0840 ha         1 JTZ       0.158500
     41 H15A        -3.8080     3.9790    -1.4720 ha         1 JTZ       0.158500
@<TRIPOS>BOND
     1     1     4 1   
     2     1    19 1   
     3     1    20 1   
     4     1    21 1   
     5     2     4 1   
     6     2     7 1   
     7     2    22 1   
     8     3     8 1   
     9     3    23 1   
    10     4     6 1   
    11     4    24 1   
    12     5     9 1   
    13     5    10 1   
    14     6    25 1   
    15     6    26 1   
    16     6    27 1   
    17     7     8 1   
    18     7    28 1   
    19     7    29 1   
    20     8     9 1   
    21     8    30 1   
    22     9    31 1   
    23     9    32 1   
    24    10    11 ar  
    25    10    15 ar  
    26    11    12 ar  
    27    11    33 1   
    28    12    13 ar  
    29    12    34 1   
    30    13    14 ar  
    31    13    35 1   
    32    14    15 ar  
    33    14    36 1   
    34    15    16 1   
    35    16    17 1   
    36    16    37 1   
    37    16    38 1   
    38    17    18 2   
    39    17    39 1   
    40    18    40 1   
    41    18    41 1   
@<TRIPOS>SUBSTRUCTURE
     1 JTZ         1 TEMP              0 ****  ****    0 ROOT
