@<TRIPOS>MOLECULE
JU0
   48    51     1     0     0
SMALL
No Charge or Current Charge


@<TRIPOS>ATOM
      1 O1         -20.3800     7.3260    -0.7350 os         1 JU0      -0.420000
      2 O2         -21.6560     4.6960    -0.7470 oh         1 JU0      -0.725000
      3 C1         -18.4990     8.8530    -1.2390 c6         1 JU0       0.146300
      4 C2         -17.6600     7.6140    -1.6900 c6         1 JU0       0.079300
      5 O3         -18.0930    10.0420    -1.9600 oh         1 JU0      -0.692000
      6 C3         -18.1220     6.3280    -0.9340 c6         1 JU0       0.134300
      7 C4         -19.6560     6.1470    -1.1850 c6         1 JU0       0.140300
      8 C5         -20.2540     4.8920    -0.4670 c3         1 JU0       0.170600
      9 C6         -15.5390     8.3340    -0.4620 cc         1 JU0      -0.169000
     10 N1         -14.1250     7.8200    -2.1190 nd         1 JU0      -0.342000
     11 F2         -12.3080    10.1570     3.2770 f          1 JU0      -0.158000
     12 C12        -12.1180     9.6810     2.0250 ca         1 JU0       0.157500
     13 C11        -10.8230     9.6040     1.4870 ca         1 JU0       0.090000
     14 F1          -9.7550    10.0070     2.2170 f          1 JU0      -0.143000
     15 C10        -10.6440     9.1080     0.1850 ca         1 JU0       0.157500
     16 F           -9.4040     9.0270    -0.3490 f          1 JU0      -0.158000
     17 C9         -11.7510     8.6900    -0.5740 ca         1 JU0      -0.131000
     18 C13        -13.2280     9.2650     1.2700 ca         1 JU0      -0.131000
     19 C8         -13.0590     8.7630    -0.0410 ca         1 JU0      -0.058500
     20 C7         -14.2250     8.3240    -0.8380 cd         1 JU0       0.236500
     21 N          -16.1970     7.8270    -1.5590 na         1 JU0       0.122800
     22 N2         -15.3170     7.5170    -2.5560 nc         1 JU0      -0.182800
     23 O          -17.8250     6.4390     0.4790 oh         1 JU0      -0.719000
     24 C          -20.0300     8.5560    -1.4170 c6         1 JU0       0.279300
     25 S          -20.5770     8.4850    -3.1990 ss         1 JU0      -0.219000
     26 C14        -22.3630     8.6640    -3.1050 ca         1 JU0      -0.173000
     27 C15        -23.0140     9.6160    -3.9180 ca         1 JU0       0.383900
     28 C18        -23.1420     7.8570    -2.2550 ca         1 JU0      -0.008000
     29 C17        -24.5310     8.0510    -2.2430 ca         1 JU0      -0.079900
     30 Br         -25.6420     6.9840    -1.1060 br         1 JU0      -0.089100
     31 C16        -25.0950     9.0330    -3.0790 ca         1 JU0       0.381900
     32 N3         -24.3550     9.8070    -3.9090 nb         1 JU0      -0.670000
     33 H1         -21.9540     3.9300    -0.2020 ho         1 JU0       0.516000
     34 H2         -18.3240     9.0030    -0.1630 h1         1 JU0       0.066700
     35 H3         -17.8590     7.4580    -2.7590 h1         1 JU0       0.120700
     36 H4         -18.4290    10.8260    -1.4650 ho         1 JU0       0.519000
     37 H5         -17.5920     5.4660    -1.3680 h1         1 JU0       0.066700
     38 H6         -19.8260     6.0050    -2.2620 h1         1 JU0       0.083700
     39 H7         -19.6810     4.0110    -0.7860 h1         1 JU0       0.042700
     40 H8         -20.1020     5.0070     0.6150 h1         1 JU0       0.042700
     41 H9         -16.0330     8.6360     0.4490 h4         1 JU0       0.176000
     42 H11        -14.2170     9.3360     1.7150 ha         1 JU0       0.147500
     43 H12        -17.6320     5.5330     0.8190 ho         1 JU0       0.515000
     44 H13        -20.5970     9.3840    -0.9680 h2         1 JU0       0.102700
     45 H14        -22.4410    10.2490    -4.5940 h4         1 JU0       0.036100
     46 H15        -22.6930     7.0910    -1.6280 ha         1 JU0       0.168000
     47 H16        -26.1710     9.2020    -3.0880 h4         1 JU0       0.038100
     48 H10        -11.5830     8.3100    -1.5780 ha         1 JU0       0.147500
@<TRIPOS>BOND
     1     1     7 1   
     2     1    24 1   
     3     2     8 1   
     4     2    33 1   
     5     3     4 1   
     6     3     5 1   
     7     3    24 1   
     8     3    34 1   
     9     4     6 1   
    10     4    21 1   
    11     4    35 1   
    12     5    36 1   
    13     6     7 1   
    14     6    23 1   
    15     6    37 1   
    16     7     8 1   
    17     7    38 1   
    18     8    39 1   
    19     8    40 1   
    20     9    20 2   
    21     9    21 1   
    22     9    41 1   
    23    10    20 1   
    24    10    22 2   
    25    11    12 1   
    26    12    13 ar  
    27    12    18 ar  
    28    13    14 1   
    29    13    15 ar  
    30    15    16 1   
    31    15    17 ar  
    32    17    19 ar  
    33    17    48 1   
    34    18    19 ar  
    35    18    42 1   
    36    19    20 1   
    37    21    22 1   
    38    23    43 1   
    39    24    25 1   
    40    24    44 1   
    41    25    26 1   
    42    26    27 ar  
    43    26    28 ar  
    44    27    32 ar  
    45    27    45 1   
    46    28    29 ar  
    47    28    46 1   
    48    29    30 1   
    49    29    31 ar  
    50    31    32 ar  
    51    31    47 1   
@<TRIPOS>SUBSTRUCTURE
     1 JU0         1 TEMP              0 ****  ****    0 ROOT
