@<TRIPOS>MOLECULE
JU0
   48    51     1     0     0
SMALL
abcg2


@<TRIPOS>ATOM
      1 O1         -20.4000     7.5570    -0.7250 os         1 JU0      -0.420000
      2 O2         -21.6610     4.9860    -0.7530 oh         1 JU0      -0.725000
      3 C1         -18.5000     8.9330    -1.3320 c6         1 JU0       0.146300
      4 C2         -17.7170     7.6620    -1.6540 c6         1 JU0       0.079300
      5 O3         -18.0250     9.9600    -2.1760 oh         1 JU0      -0.692000
      6 C3         -18.2250     6.4720    -0.8260 c6         1 JU0       0.134300
      7 C4         -19.7260     6.3330    -1.0590 c6         1 JU0       0.140300
      8 C5         -20.3530     5.2330    -0.2360 c3         1 JU0       0.170600
      9 C6         -15.6070     8.2760    -0.3910 cc         1 JU0      -0.169000
     10 N1         -14.2460     7.9450    -2.1070 nd         1 JU0      -0.342000
     11 F2         -12.0400     9.1790     3.4080 f          1 JU0      -0.158000
     12 C12        -12.0100     9.1110     2.0650 ca         1 JU0       0.157500
     13 C11        -10.8150     9.3910     1.4200 ca         1 JU0       0.090000
     14 F1          -9.7210     9.7260     2.1180 f          1 JU0      -0.143000
     15 C10        -10.7790     9.3100     0.0360 ca         1 JU0       0.157500
     16 F           -9.6190     9.5870    -0.5840 f          1 JU0      -0.158000
     17 C9         -11.8950     8.9650    -0.6970 ca         1 JU0      -0.131000
     18 C13        -13.1450     8.7620     1.3610 ca         1 JU0      -0.131000
     19 C8         -13.0950     8.6860    -0.0350 ca         1 JU0      -0.058500
     20 C7         -14.2880     8.3210    -0.7960 cd         1 JU0       0.236500
     21 N          -16.2870     7.8700    -1.4820 na         1 JU0       0.122800
     22 N2         -15.4500     7.6760    -2.5180 nc         1 JU0      -0.182800
     23 O          -17.9530     6.6830     0.5580 oh         1 JU0      -0.719000
     24 C          -20.0130     8.6750    -1.4760 c6         1 JU0       0.279300
     25 S          -20.4770     8.5770    -3.2770 ss         1 JU0      -0.219000
     26 C14        -22.2450     8.5850    -3.1360 ca         1 JU0      -0.173000
     27 C15        -22.9650     9.6050    -3.7620 ca         1 JU0       0.383900
     28 C18        -22.9550     7.5860    -2.4670 ca         1 JU0      -0.008000
     29 C17        -24.3360     7.6880    -2.4470 ca         1 JU0      -0.079900
     30 BR         -25.3770     6.3720    -1.5330 br         1 JU0      -0.089100
     31 C16        -24.9790     8.7310    -3.1020 ca         1 JU0       0.381900
     32 N3         -24.2960     9.6720    -3.7550 nb         1 JU0      -0.670000
     33 H1         -22.1510     4.4580    -0.1120 ho         1 JU0       0.516000
     34 H2         -18.3410     9.1900    -0.2810 h1         1 JU0       0.066700
     35 H3         -17.8410     7.4220    -2.7110 h1         1 JU0       0.120700
     36 H4         -18.3760    10.8070    -1.8710 ho         1 JU0       0.519000
     37 H5         -17.7270     5.5670    -1.1770 h1         1 JU0       0.066700
     38 H6         -19.8920     6.1170    -2.1200 h1         1 JU0       0.083700
     39 H7         -19.7290     4.3370    -0.3160 h1         1 JU0       0.042700
     40 H8         -20.3950     5.5370     0.8120 h1         1 JU0       0.042700
     41 H9         -16.0900     8.4910     0.5430 h4         1 JU0       0.176000
     42 H11        -14.0480     8.5400     1.9120 ha         1 JU0       0.147500
     43 H12        -17.3840     5.9740     0.8770 ho         1 JU0       0.515000
     44 H13        -20.5690     9.5180    -1.0700 h2         1 JU0       0.102700
     45 H14        -22.4370    10.3940    -4.2860 h4         1 JU0       0.036100
     46 H15        -22.4520     6.7650    -1.9780 ha         1 JU0       0.168000
     47 H16        -26.0590     8.8070    -3.1000 h4         1 JU0       0.038100
     48 H10        -11.8290     8.9190    -1.7740 ha         1 JU0       0.147500
@<TRIPOS>BOND
     1     1     7 1   
     2     1    24 1   
     3     2     8 1   
     4     2    33 1   
     5     3     4 1   
     6     3     5 1   
     7     3    24 1   
     8     3    34 1   
     9     4     6 1   
    10     4    21 1   
    11     4    35 1   
    12     5    36 1   
    13     6     7 1   
    14     6    23 1   
    15     6    37 1   
    16     7     8 1   
    17     7    38 1   
    18     8    39 1   
    19     8    40 1   
    20     9    20 2   
    21     9    21 1   
    22     9    41 1   
    23    10    20 1   
    24    10    22 2   
    25    11    12 1   
    26    12    13 ar  
    27    12    18 ar  
    28    13    14 1   
    29    13    15 ar  
    30    15    16 1   
    31    15    17 ar  
    32    17    19 ar  
    33    17    48 1   
    34    18    19 ar  
    35    18    42 1   
    36    19    20 1   
    37    21    22 1   
    38    23    43 1   
    39    24    25 1   
    40    24    44 1   
    41    25    26 1   
    42    26    27 ar  
    43    26    28 ar  
    44    27    32 ar  
    45    27    45 1   
    46    28    29 ar  
    47    28    46 1   
    48    29    30 1   
    49    29    31 ar  
    50    31    32 ar  
    51    31    47 1   
@<TRIPOS>SUBSTRUCTURE
     1 JU0         1 TEMP              0 ****  ****    0 ROOT
