@<TRIPOS>MOLECULE
JU1
  184   185     1     0     0
SMALL
No Charge or Current Charge


@<TRIPOS>ATOM
      1 C1           5.5880    -3.4520     0.6600 c6         1 JU1       0.358300
      2 C2           2.0440    -3.7990     1.9720 c3         1 JU1       0.168600
      3 C3           3.1670    -3.3250     0.9930 c6         1 JU1       0.168300
      4 C4           2.8660    -3.7080    -0.4880 c6         1 JU1       0.146300
      5 C5           4.0510    -3.1730    -1.3630 c6         1 JU1       0.157300
      6 C6           5.4010    -3.7640    -0.8630 c6         1 JU1       0.115300
      7 CBT         17.9170    16.4410    -1.7900 c3         1 JU1      -0.088100
      8 CBS         17.7470    14.9240    -1.9930 c3         1 JU1      -0.074400
      9 CBR         16.4380    14.3770    -1.3830 c3         1 JU1      -0.075400
     10 CBQ         16.2640    12.8560    -1.5870 c3         1 JU1      -0.074400
     11 CBP         14.9450    12.3160    -0.9910 c3         1 JU1      -0.074400
     12 CBO         14.7650    10.7960    -1.1930 c3         1 JU1      -0.074400
     13 CBN         13.4360    10.2640    -0.6150 c3         1 JU1      -0.074400
     14 CBM         13.2550     8.7430    -0.8090 c3         1 JU1      -0.074400
     15 CBL         11.9180     8.2170    -0.2430 c3         1 JU1      -0.074400
     16 CBK         11.7430     6.6910    -0.4100 c3         1 JU1      -0.074400
     17 CBJ         10.4050     6.1740     0.1620 c3         1 JU1      -0.074400
     18 CBI         10.2420     4.6420     0.0430 c3         1 JU1      -0.076400
     19 CBG          8.7760     2.5880     0.5870 c3         1 JU1      -0.108400
     20 CAQ          7.4920     2.0440     1.2760 c3         1 JU1       0.135300
     21 OAR          6.3600     2.5500     0.5490 oh         1 JU1      -0.638000
     22 CAP          7.4250     0.4730     1.3660 c3         1 JU1       0.130300
     23 OAS          8.6670    -0.0480     1.8860 oh         1 JU1      -0.639000
     24 CAN          6.2570    -0.0880     2.2500 c3         1 JU1       0.088700
     25 O1           5.8000    -2.0410     0.8620 os         1 JU1      -0.474000
     26 O5           6.4880    -3.2310    -1.6600 oh         1 JU1      -0.711000
     27 O3           3.9070    -3.4290    -2.7720 oh         1 JU1      -0.722000
     28 O2           4.4390    -3.8890     1.4200 os         1 JU1      -0.448000
     29 O6           2.2850    -3.4270     3.3430 oh         1 JU1      -0.711000
     30 O4           2.6380    -5.1440    -0.5890 os         1 JU1      -0.447000
     31 CAT          2.1300    -5.6820    -1.8230 c3         1 JU1       0.211900
     32 CAU          1.6550    -7.1030    -1.5520 ca         1 JU1      -0.093300
     33 CAV          0.2830    -7.4020    -1.4980 ca         1 JU1      -0.088500
     34 CAW         -0.1480    -8.7140    -1.2360 ca         1 JU1      -0.114000
     35 CAX          0.7780    -9.7620    -1.0170 ca         1 JU1      -0.055300
     36 CBA          0.2560   -11.1940    -0.7210 c3         1 JU1      -0.000700
     37 CBD          1.3980   -12.2220    -0.4850 c3         1 JU1      -0.082767
     38 CBB         -0.6290   -11.1640     0.5540 c3         1 JU1      -0.082767
     39 CBC         -0.5930   -11.6900    -1.9230 c3         1 JU1      -0.082767
     40 CAY          2.1580    -9.4440    -1.0750 ca         1 JU1      -0.114000
     41 CAZ          2.5870    -8.1320    -1.3410 ca         1 JU1      -0.088500
     42 NAO          4.9550     0.5250     1.9440 ns         1 JU1      -0.501900
     43 CBE          3.8780     0.5580     2.7970 c          1 JU1       0.614100
     44 OBF          3.9220     0.0870     3.9240 o          1 JU1      -0.601100
     45 CBU          2.6430     1.2810     2.2520 c3         1 JU1      -0.149400
     46 CBV          1.4890     0.2970     1.9480 c3         1 JU1      -0.064400
     47 CBW          0.1930     1.0110     1.5080 c3         1 JU1      -0.076400
     48 CBX         -0.9930     0.0460     1.2850 c3         1 JU1      -0.075400
     49 CBY         -2.2940     0.7830     0.8940 c3         1 JU1      -0.073400
     50 CBZ         -3.5170    -0.1500     0.7540 c3         1 JU1      -0.075400
     51 CCA         -4.8120     0.6220     0.4180 c3         1 JU1      -0.073400
     52 CCB         -6.0690    -0.2730     0.3490 c3         1 JU1      -0.075400
     53 CCC         -7.3530     0.5360     0.0590 c3         1 JU1      -0.073400
     54 CCD         -8.6390    -0.3200     0.0480 c3         1 JU1      -0.074400
     55 CCE         -9.9080     0.5240    -0.2030 c3         1 JU1      -0.074400
     56 CCF        -11.2170    -0.2950    -0.1660 c3         1 JU1      -0.074400
     57 CCG        -12.4690     0.5830    -0.3890 c3         1 JU1      -0.074400
     58 CCH        -13.7970    -0.2020    -0.3160 c3         1 JU1      -0.074400
     59 CCI        -15.0330     0.7020    -0.5180 c3         1 JU1      -0.074400
     60 CCJ        -16.3740    -0.0590    -0.4240 c3         1 JU1      -0.074400
     61 CCK        -17.5940     0.8690    -0.6090 c3         1 JU1      -0.074400
     62 CCL        -18.9470     0.1310    -0.5110 c3         1 JU1      -0.074400
     63 CCM        -20.1550     1.0760    -0.6850 c3         1 JU1      -0.074400
     64 CCN        -21.5140     0.3490    -0.5910 c3         1 JU1      -0.074400
     65 CCO        -22.7170     1.3030    -0.7590 c3         1 JU1      -0.074400
     66 CCP        -24.0810     0.5840    -0.6710 c3         1 JU1      -0.074400
     67 CCQ        -25.2800     1.5450    -0.8330 c3         1 JU1      -0.075400
     68 CCR        -26.6460     0.8300    -0.7480 c3         1 JU1      -0.075400
     69 CCS        -27.8410     1.7890    -0.9060 c3         1 JU1      -0.088100
     70 H1           6.4760    -3.9970     1.0150 h2         1 JU1       0.069700
     71 H2           1.0930    -3.3680     1.6300 h1         1 JU1       0.033700
     72 H3           1.9530    -4.8910     1.8930 h1         1 JU1       0.033700
     73 H4           3.2290    -2.2300     1.0690 h1         1 JU1       0.051700
     74 H5           1.9430    -3.1930    -0.7910 h1         1 JU1       0.050700
     75 H6           4.0910    -2.0830    -1.2100 h1         1 JU1       0.051700
     76 H7           5.3590    -4.8580    -0.9730 h1         1 JU1       0.071700
     77 H8          17.9400    16.6900    -0.7220 hc         1 JU1       0.031367
     78 H9          18.8550    16.7850    -2.2430 hc         1 JU1       0.031367
     79 H10         17.0900    16.9910    -2.2560 hc         1 JU1       0.031367
     80 H11         17.7670    14.7040    -3.0680 hc         1 JU1       0.036700
     81 H12         18.6030    14.4050    -1.5440 hc         1 JU1       0.036700
     82 H13         16.4210    14.6000    -0.3080 hc         1 JU1       0.036700
     83 H14         15.5850    14.9010    -1.8320 hc         1 JU1       0.036700
     84 H15         16.2920    12.6310    -2.6610 hc         1 JU1       0.036700
     85 H16         17.1100    12.3310    -1.1270 hc         1 JU1       0.036700
     86 H17         14.9170    12.5410     0.0830 hc         1 JU1       0.037200
     87 H18         14.1000    12.8430    -1.4510 hc         1 JU1       0.037200
     88 H19         14.8070    10.5670    -2.2660 hc         1 JU1       0.036700
     89 H20         15.6020    10.2670    -0.7200 hc         1 JU1       0.036700
     90 H21         13.3900    10.4980     0.4570 hc         1 JU1       0.037700
     91 H22         12.6000    10.7900    -1.0930 hc         1 JU1       0.037700
     92 H23         13.3110     8.5060    -1.8790 hc         1 JU1       0.036700
     93 H24         14.0850     8.2170    -0.3200 hc         1 JU1       0.036700
     94 H25         11.8540     8.4700     0.8230 hc         1 JU1       0.037700
     95 H26         11.0880     8.7310    -0.7440 hc         1 JU1       0.037700
     96 H27         11.8030     6.4340    -1.4750 hc         1 JU1       0.036700
     97 H28         12.5730     6.1770     0.0910 hc         1 JU1       0.036700
     98 H29         10.3330     6.4600     1.2190 hc         1 JU1       0.038200
     99 H30          9.5750     6.6670    -0.3590 hc         1 JU1       0.038200
    100 H31         10.2990     4.3520    -1.0130 hc         1 JU1       0.036700
    101 H32         11.0800     4.1540     0.5560 hc         1 JU1       0.036700
    102 H33          8.8430     4.4560     1.6860 hc         1 JU1       0.044200
    103 H34          8.0790     4.6000     0.1050 hc         1 JU1       0.044200
    104 H35          8.8050     2.2490    -0.4560 hc         1 JU1       0.049200
    105 H36          9.6610     2.1610     1.0750 hc         1 JU1       0.049200
    106 H37          7.4700     2.4350     2.3030 h1         1 JU1       0.068700
    107 H38          6.7140     3.1120    -0.1750 ho         1 JU1       0.435000
    108 H39          7.2770     0.1010     0.3430 h1         1 JU1       0.078700
    109 H40          8.8700     0.4320     2.7180 ho         1 JU1       0.437000
    110 H41          6.4920     0.1800     3.2890 h1         1 JU1       0.090700
    111 H42          7.1140    -2.0860     2.4980 h1         1 JU1       0.050200
    112 H43          5.3970    -1.9700     2.9200 h1         1 JU1       0.050200
    113 H44          6.7740    -2.4010    -1.2060 ho         1 JU1       0.510000
    114 H45          4.8330    -3.4070    -3.1150 ho         1 JU1       0.523000
    115 H46          1.5940    -3.8680     3.8880 ho         1 JU1       0.505000
    116 H47          1.2950    -5.0760    -2.2000 h1         1 JU1       0.036700
    117 H48          2.9090    -5.7150    -2.5930 h1         1 JU1       0.036700
    118 H49         -0.4540    -6.6170    -1.6530 ha         1 JU1       0.110000
    119 H50         -1.2160    -8.9080    -1.2020 ha         1 JU1       0.111500
    120 H51          2.0400   -12.3120    -1.3700 hc         1 JU1       0.035367
    121 H52          2.0190   -11.9340     0.3710 hc         1 JU1       0.035367
    122 H53          0.9890   -13.2180    -0.2740 hc         1 JU1       0.035367
    123 H54         -0.9820   -12.1710     0.8100 hc         1 JU1       0.035367
    124 H55         -0.0610   -10.7770     1.4090 hc         1 JU1       0.035367
    125 H56         -1.5120   -10.5300     0.4200 hc         1 JU1       0.035367
    126 H57         -1.4710   -11.0550    -2.0870 hc         1 JU1       0.035367
    127 H58          0.0020   -11.6870    -2.8440 hc         1 JU1       0.035367
    128 H59         -0.9510   -12.7130    -1.7540 hc         1 JU1       0.035367
    129 H60          2.9220   -10.1980    -0.9150 ha         1 JU1       0.111500
    130 H61          3.6520    -7.9120    -1.3740 ha         1 JU1       0.110000
    131 H62          4.8640     1.0270     1.0690 hn         1 JU1       0.307500
    132 H63          2.3000     1.9950     3.0110 hc         1 JU1       0.050200
    133 H64          2.8960     1.8180     1.3300 hc         1 JU1       0.050200
    134 H65          1.8030    -0.3990     1.1600 hc         1 JU1       0.057200
    135 H66          1.2830    -0.3050     2.8430 hc         1 JU1       0.057200
    136 H67         -0.0860     1.7460     2.2730 hc         1 JU1       0.032700
    137 H68          0.3840     1.5690     0.5830 hc         1 JU1       0.032700
    138 H69         -0.7340    -0.6770     0.5010 hc         1 JU1       0.039700
    139 H70         -1.1680    -0.5270     2.2050 hc         1 JU1       0.039700
    140 H71         -2.5140     1.5430     1.6540 hc         1 JU1       0.036200
    141 H72         -2.1350     1.3160    -0.0520 hc         1 JU1       0.036200
    142 H73         -3.3220    -0.8940    -0.0290 hc         1 JU1       0.037700
    143 H74         -3.6590    -0.7000     1.6930 hc         1 JU1       0.037700
    144 H75         -4.9700     1.3970     1.1790 hc         1 JU1       0.037200
    145 H76         -4.6840     1.1400    -0.5410 hc         1 JU1       0.037200
    146 H77         -5.9340    -1.0330    -0.4310 hc         1 JU1       0.037200
    147 H78         -6.1860    -0.8050     1.3010 hc         1 JU1       0.037200
    148 H79         -7.4570     1.3230     0.8170 hc         1 JU1       0.037200
    149 H80         -7.2490     1.0410    -0.9100 hc         1 JU1       0.037200
    150 H81         -8.5550    -1.0930    -0.7260 hc         1 JU1       0.037200
    151 H82         -8.7340    -0.8380     1.0110 hc         1 JU1       0.037200
    152 H83         -9.9640     1.3170     0.5530 hc         1 JU1       0.037200
    153 H84         -9.8220     1.0200    -1.1780 hc         1 JU1       0.037200
    154 H85        -11.1780    -1.0780    -0.9340 hc         1 JU1       0.037200
    155 H86        -11.2980    -0.8000     0.8050 hc         1 JU1       0.037200
    156 H87        -12.4850     1.3800     0.3650 hc         1 JU1       0.036700
    157 H88        -12.3940     1.0730    -1.3680 hc         1 JU1       0.036700
    158 H89        -13.7950    -0.9900    -1.0810 hc         1 JU1       0.037200
    159 H90        -13.8690    -0.7000     0.6590 hc         1 JU1       0.037200
    160 H91        -15.0210     1.4980     0.2370 hc         1 JU1       0.036700
    161 H92        -14.9650     1.1910    -1.4980 hc         1 JU1       0.036700
    162 H93        -16.3980    -0.8460    -1.1870 hc         1 JU1       0.037200
    163 H94        -16.4410    -0.5540     0.5520 hc         1 JU1       0.037200
    164 H95        -17.5620     1.6590     0.1520 hc         1 JU1       0.036700
    165 H96        -17.5250     1.3630    -1.5860 hc         1 JU1       0.036700
    166 H97        -18.9880    -0.6530    -1.2780 hc         1 JU1       0.037200
    167 H98        -19.0170    -0.3690     0.4630 hc         1 JU1       0.037200
    168 H99        -20.1130     1.8590     0.0830 hc         1 JU1       0.036700
    169 H100       -20.0820     1.5790    -1.6580 hc         1 JU1       0.036700
    170 H101       -21.5590    -0.4290    -1.3640 hc         1 JU1       0.036700
    171 H102       -21.5860    -0.1570     0.3800 hc         1 JU1       0.036700
    172 H103       -22.6700     2.0790     0.0150 hc         1 JU1       0.036700
    173 H104       -22.6400     1.8120    -1.7280 hc         1 JU1       0.036700
    174 H105       -24.1310    -0.1900    -1.4470 hc         1 JU1       0.036700
    175 H106       -24.1570     0.0730     0.2970 hc         1 JU1       0.036700
    176 H107       -25.2290     2.3170    -0.0550 hc         1 JU1       0.036700
    177 H108       -25.2010     2.0590    -1.8000 hc         1 JU1       0.036700
    178 H109       -26.7020     0.0590    -1.5270 hc         1 JU1       0.036700
    179 H110       -26.7280     0.3160     0.2180 hc         1 JU1       0.036700
    180 H111       -28.7860     1.2360    -0.8400 hc         1 JU1       0.031367
    181 H112       -27.8350     2.5520    -0.1190 hc         1 JU1       0.031367
    182 H113       -27.8080     2.2940    -1.8790 hc         1 JU1       0.031367
    183 CAM          6.1570    -1.6380     2.2000 c3         1 JU1       0.143600
    184 CBH          8.9130     4.1300     0.6410 c3         1 JU1      -0.071400
@<TRIPOS>BOND
     1     1     6 1   
     2     1    25 1   
     3     1    28 1   
     4     1    70 1   
     5     2     3 1   
     6     2    29 1   
     7     2    71 1   
     8     2    72 1   
     9     3     4 1   
    10     3    28 1   
    11     3    73 1   
    12     4     5 1   
    13     4    30 1   
    14     4    74 1   
    15     5     6 1   
    16     5    27 1   
    17     5    75 1   
    18     6    26 1   
    19     6    76 1   
    20     7     8 1   
    21     7    77 1   
    22     7    78 1   
    23     7    79 1   
    24     8     9 1   
    25     8    80 1   
    26     8    81 1   
    27     9    10 1   
    28     9    82 1   
    29     9    83 1   
    30    10    11 1   
    31    10    84 1   
    32    10    85 1   
    33    11    12 1   
    34    11    86 1   
    35    11    87 1   
    36    12    13 1   
    37    12    88 1   
    38    12    89 1   
    39    13    14 1   
    40    13    90 1   
    41    13    91 1   
    42    14    15 1   
    43    14    92 1   
    44    14    93 1   
    45    15    16 1   
    46    15    94 1   
    47    15    95 1   
    48    16    17 1   
    49    16    96 1   
    50    16    97 1   
    51    17    18 1   
    52    17    98 1   
    53    17    99 1   
    54    18   100 1   
    55    18   101 1   
    56    18   184 1   
    57    19    20 1   
    58    19   104 1   
    59    19   105 1   
    60    19   184 1   
    61    20    21 1   
    62    20    22 1   
    63    20   106 1   
    64    21   107 1   
    65    22    23 1   
    66    22    24 1   
    67    22   108 1   
    68    23   109 1   
    69    24    42 1   
    70    24   110 1   
    71    24   183 1   
    72    25   183 1   
    73    26   113 1   
    74    27   114 1   
    75    29   115 1   
    76    30    31 1   
    77    31    32 1   
    78    31   116 1   
    79    31   117 1   
    80    32    33 ar  
    81    32    41 ar  
    82    33    34 ar  
    83    33   118 1   
    84    34    35 ar  
    85    34   119 1   
    86    35    36 1   
    87    35    40 ar  
    88    36    37 1   
    89    36    38 1   
    90    36    39 1   
    91    37   120 1   
    92    37   121 1   
    93    37   122 1   
    94    38   123 1   
    95    38   124 1   
    96    38   125 1   
    97    39   126 1   
    98    39   127 1   
    99    39   128 1   
   100    40    41 ar  
   101    40   129 1   
   102    41   130 1   
   103    42    43 1   
   104    42   131 1   
   105    43    44 2   
   106    43    45 1   
   107    45    46 1   
   108    45   132 1   
   109    45   133 1   
   110    46    47 1   
   111    46   134 1   
   112    46   135 1   
   113    47    48 1   
   114    47   136 1   
   115    47   137 1   
   116    48    49 1   
   117    48   138 1   
   118    48   139 1   
   119    49    50 1   
   120    49   140 1   
   121    49   141 1   
   122    50    51 1   
   123    50   142 1   
   124    50   143 1   
   125    51    52 1   
   126    51   144 1   
   127    51   145 1   
   128    52    53 1   
   129    52   146 1   
   130    52   147 1   
   131    53    54 1   
   132    53   148 1   
   133    53   149 1   
   134    54    55 1   
   135    54   150 1   
   136    54   151 1   
   137    55    56 1   
   138    55   152 1   
   139    55   153 1   
   140    56    57 1   
   141    56   154 1   
   142    56   155 1   
   143    57    58 1   
   144    57   156 1   
   145    57   157 1   
   146    58    59 1   
   147    58   158 1   
   148    58   159 1   
   149    59    60 1   
   150    59   160 1   
   151    59   161 1   
   152    60    61 1   
   153    60   162 1   
   154    60   163 1   
   155    61    62 1   
   156    61   164 1   
   157    61   165 1   
   158    62    63 1   
   159    62   166 1   
   160    62   167 1   
   161    63    64 1   
   162    63   168 1   
   163    63   169 1   
   164    64    65 1   
   165    64   170 1   
   166    64   171 1   
   167    65    66 1   
   168    65   172 1   
   169    65   173 1   
   170    66    67 1   
   171    66   174 1   
   172    66   175 1   
   173    67    68 1   
   174    67   176 1   
   175    67   177 1   
   176    68    69 1   
   177    68   178 1   
   178    68   179 1   
   179    69   180 1   
   180    69   181 1   
   181    69   182 1   
   182   102   184 1   
   183   103   184 1   
   184   111   183 1   
   185   112   183 1   
@<TRIPOS>SUBSTRUCTURE
     1 JU1         1 TEMP              0 ****  ****    0 ROOT
