@<TRIPOS>MOLECULE
JU1
  184   185     1     0     0
SMALL
abcg2


@<TRIPOS>ATOM
      1 C1           6.1760    -3.9560     1.0880 c6         1 JU1       0.358300
      2 C2           2.5310    -4.0310     0.7020 c3         1 JU1       0.168600
      3 C3           3.9560    -3.7560     0.2770 c6         1 JU1       0.168300
      4 C4           4.3020    -4.3630    -1.0780 c6         1 JU1       0.146300
      5 C5           5.7620    -4.0350    -1.3850 c6         1 JU1       0.157300
      6 C6           6.6470    -4.5370    -0.2490 c6         1 JU1       0.115300
      7 CBT         16.6950    16.4810    -1.6580 c3         1 JU1      -0.088100
      8 CBS         16.6300    14.9620    -1.7390 c3         1 JU1      -0.074400
      9 CBR         15.3020    14.3990    -1.2480 c3         1 JU1      -0.075400
     10 CBQ         15.2220    12.8800    -1.3270 c3         1 JU1      -0.074400
     11 CBP         13.8960    12.3200    -0.8280 c3         1 JU1      -0.074400
     12 CBO         13.8140    10.8010    -0.9130 c3         1 JU1      -0.074400
     13 CBN         12.4920    10.2380    -0.4060 c3         1 JU1      -0.074400
     14 CBM         12.4110     8.7200    -0.4980 c3         1 JU1      -0.074400
     15 CBL         11.0990     8.1500     0.0260 c3         1 JU1      -0.074400
     16 CBK         11.0180     6.6330    -0.0820 c3         1 JU1      -0.074400
     17 CBJ          9.7290     6.0510     0.4830 c3         1 JU1      -0.074400
     18 CBI          9.6450     4.5370     0.3420 c3         1 JU1      -0.076400
     19 CBG          8.3200     2.4260     0.7880 c3         1 JU1      -0.108400
     20 CAQ          7.1960     1.7620     1.5790 c3         1 JU1       0.135300
     21 OAR          5.9440     2.3430     1.2990 oh         1 JU1      -0.638000
     22 CAP          7.2020     0.2300     1.3940 c3         1 JU1       0.130300
     23 OAS          8.4360    -0.2900     1.8310 oh         1 JU1      -0.639000
     24 CAN          6.0200    -0.4670     2.1010 c3         1 JU1       0.088700
     25 O1           6.4280    -2.5900     1.0910 os         1 JU1      -0.474000
     26 O5           7.9770    -4.1890    -0.5440 oh         1 JU1      -0.711000
     27 O3           6.1220    -4.6070    -2.6160 oh         1 JU1      -0.722000
     28 O2           4.8210    -4.2500     1.2880 os         1 JU1      -0.448000
     29 O6           2.2570    -3.2590     1.8480 oh         1 JU1      -0.711000
     30 O4           4.0650    -5.7500    -1.0270 os         1 JU1      -0.447000
     31 CAT          3.5750    -6.3370    -2.2170 c3         1 JU1       0.211900
     32 CAU          3.0920    -7.7170    -1.8860 ca         1 JU1      -0.093300
     33 CAV          1.8630    -7.9120    -1.2590 ca         1 JU1      -0.088500
     34 CAW          1.4270    -9.1830    -0.9290 ca         1 JU1      -0.114000
     35 CAX          2.2010   -10.3160    -1.2030 ca         1 JU1      -0.055300
     36 CBA          1.6810   -11.7000    -0.8280 c3         1 JU1      -0.000700
     37 CBD          2.6660   -12.8090    -1.1970 c3         1 JU1      -0.082767
     38 CBB          1.4370   -11.7580     0.6860 c3         1 JU1      -0.082767
     39 CBC          0.3610   -11.9590    -1.5660 c3         1 JU1      -0.082767
     40 CAY          3.4290   -10.1120    -1.8250 ca         1 JU1      -0.114000
     41 CAZ          3.8670    -8.8350    -2.1600 ca         1 JU1      -0.088500
     42 NAO          4.7980    -0.2850     1.3510 ns         1 JU1      -0.501900
     43 CBE          3.6120     0.0180     1.9070 c          1 JU1       0.614100
     44 OBF          3.4730     0.2170     3.1060 o          1 JU1      -0.601100
     45 CBU          2.4600     0.1050     0.9260 c3         1 JU1      -0.149400
     46 CBV          1.1000     0.1790     1.5990 c3         1 JU1      -0.064400
     47 CBW         -0.0510     0.2020     0.6020 c3         1 JU1      -0.076400
     48 CBX         -1.4060     0.3130     1.2890 c3         1 JU1      -0.075400
     49 CBY         -2.5860     0.3300     0.3260 c3         1 JU1      -0.073400
     50 CBZ         -3.9250     0.4640     1.0400 c3         1 JU1      -0.075400
     51 CCA         -5.1240     0.4840     0.1000 c3         1 JU1      -0.073400
     52 CCB         -6.4500     0.6300     0.8350 c3         1 JU1      -0.075400
     53 CCC         -7.6610     0.6540    -0.0910 c3         1 JU1      -0.073400
     54 CCD         -8.9790     0.8040     0.6580 c3         1 JU1      -0.074400
     55 CCE        -10.1980     0.8320    -0.2570 c3         1 JU1      -0.074400
     56 CCF        -11.5110     0.9820     0.5010 c3         1 JU1      -0.074400
     57 CCG        -12.7340     1.0100    -0.4070 c3         1 JU1      -0.074400
     58 CCH        -14.0450     1.1590     0.3560 c3         1 JU1      -0.074400
     59 CCI        -15.2700     1.1870    -0.5490 c3         1 JU1      -0.074400
     60 CCJ        -16.5790     1.3330     0.2160 c3         1 JU1      -0.074400
     61 CCK        -17.8060     1.3590    -0.6880 c3         1 JU1      -0.074400
     62 CCL        -19.1160     1.5010     0.0770 c3         1 JU1      -0.074400
     63 CCM        -20.3410     1.5240    -0.8280 c3         1 JU1      -0.074400
     64 CCN        -21.6530     1.6590    -0.0650 c3         1 JU1      -0.074400
     65 CCO        -22.8770     1.6790    -0.9720 c3         1 JU1      -0.074400
     66 CCP        -24.1910     1.8050    -0.2110 c3         1 JU1      -0.074400
     67 CCQ        -25.4120     1.8230    -1.1220 c3         1 JU1      -0.075400
     68 CCR        -26.7300     1.9370    -0.3660 c3         1 JU1      -0.075400
     69 CCS        -27.9400     1.9510    -1.2910 c3         1 JU1      -0.088100
     70 H1           6.7000    -4.4500     1.9190 h2         1 JU1       0.069700
     71 H2           1.8740    -3.7610    -0.1350 h1         1 JU1       0.033700
     72 H3           2.3930    -5.1020     0.8910 h1         1 JU1       0.033700
     73 H4           4.0650    -2.6700     0.1780 h1         1 JU1       0.051700
     74 H5           3.6650    -3.8870    -1.8380 h1         1 JU1       0.050700
     75 H6           5.8420    -2.9380    -1.4320 h1         1 JU1       0.051700
     76 H7           6.5330    -5.6260    -0.1820 h1         1 JU1       0.071700
     77 H8          16.5560    16.8280    -0.6320 hc         1 JU1       0.031367
     78 H9          17.6550    16.8620    -2.0080 hc         1 JU1       0.031367
     79 H10         15.9150    16.9400    -2.2680 hc         1 JU1       0.031367
     80 H11         16.7980    14.6430    -2.7720 hc         1 JU1       0.036700
     81 H12         17.4450    14.5260    -1.1530 hc         1 JU1       0.036700
     82 H13         15.1360    14.7190    -0.2120 hc         1 JU1       0.036700
     83 H14         14.4840    14.8370    -1.8320 hc         1 JU1       0.036700
     84 H15         15.3830    12.5630    -2.3640 hc         1 JU1       0.036700
     85 H16         16.0420    12.4430    -0.7470 hc         1 JU1       0.036700
     86 H17         13.7370    12.6340     0.2090 hc         1 JU1       0.037200
     87 H18         13.0750    12.7600    -1.4060 hc         1 JU1       0.037200
     88 H19         13.9670    10.4870    -1.9520 hc         1 JU1       0.036700
     89 H20         14.6390    10.3610    -0.3410 hc         1 JU1       0.036700
     90 H21         12.3420    10.5470     0.6350 hc         1 JU1       0.037700
     91 H22         11.6660    10.6810    -0.9730 hc         1 JU1       0.037700
     92 H23         12.5490     8.4130    -1.5420 hc         1 JU1       0.036700
     93 H24         13.2450     8.2770     0.0580 hc         1 JU1       0.036700
     94 H25         10.9680     8.4470     1.0730 hc         1 JU1       0.037700
     95 H26         10.2620     8.5990    -0.5200 hc         1 JU1       0.037700
     96 H27         11.1200     6.3400    -1.1330 hc         1 JU1       0.036700
     97 H28         11.8730     6.1860     0.4380 hc         1 JU1       0.036700
     98 H29          9.6440     6.3240     1.5420 hc         1 JU1       0.038200
     99 H30          8.8690     6.5120    -0.0160 hc         1 JU1       0.038200
    100 H31          9.6670     4.2710    -0.7210 hc         1 JU1       0.036700
    101 H32         10.5380     4.0820     0.7840 hc         1 JU1       0.036700
    102 H33          8.4200     4.1580     2.0640 hc         1 JU1       0.044200
    103 H34          7.5100     4.4200     0.5920 hc         1 JU1       0.044200
    104 H35          8.1890     2.2040    -0.2790 hc         1 JU1       0.049200
    105 H36          9.2710     1.9740     1.0760 hc         1 JU1       0.049200
    106 H37          7.3630     1.9560     2.6480 h1         1 JU1       0.068700
    107 H38          5.7640     2.2450     0.3570 ho         1 JU1       0.435000
    108 H39          7.1520    -0.0010     0.3230 h1         1 JU1       0.078700
    109 H40          8.5810    -0.0190     2.7450 ho         1 JU1       0.437000
    110 H41          5.8740    -0.0110     3.0840 h1         1 JU1       0.090700
    111 H42          7.1200    -2.1190     2.9860 h1         1 JU1       0.050200
    112 H43          5.3740    -2.3410     2.8650 h1         1 JU1       0.050200
    113 H44          8.5660    -4.7920    -0.0820 ho         1 JU1       0.510000
    114 H45          7.0710    -4.4890    -2.7290 ho         1 JU1       0.523000
    115 H46          1.3310    -3.3780     2.0740 ho         1 JU1       0.505000
    116 H47          2.7470    -5.7390    -2.6180 h1         1 JU1       0.036700
    117 H48          4.3480    -6.3860    -2.9880 h1         1 JU1       0.036700
    118 H49          1.2320    -7.0590    -1.0360 ha         1 JU1       0.110000
    119 H50          0.4590    -9.2880    -0.4530 ha         1 JU1       0.111500
    120 H51          2.8560   -12.8500    -2.2720 hc         1 JU1       0.035367
    121 H52          3.6250   -12.6950    -0.6880 hc         1 JU1       0.035367
    122 H53          2.2560   -13.7760    -0.9000 hc         1 JU1       0.035367
    123 H54          1.0740   -12.7470     0.9700 hc         1 JU1       0.035367
    124 H55          2.3570   -11.5660     1.2410 hc         1 JU1       0.035367
    125 H56          0.6930   -11.0290     1.0100 hc         1 JU1       0.035367
    126 H57         -0.3980   -11.2160    -1.3180 hc         1 JU1       0.035367
    127 H58          0.5050   -11.9400    -2.6480 hc         1 JU1       0.035367
    128 H59         -0.0400   -12.9400    -1.2990 hc         1 JU1       0.035367
    129 H60          4.0690   -10.9510    -2.0630 ha         1 JU1       0.111500
    130 H61          4.8280    -8.7160    -2.6470 ha         1 JU1       0.110000
    131 H62          4.8280    -0.4690     0.3610 hn         1 JU1       0.307500
    132 H63          2.6150     0.9830     0.2890 hc         1 JU1       0.050200
    133 H64          2.4980    -0.7580     0.2560 hc         1 JU1       0.050200
    134 H65          0.9790    -0.6780     2.2660 hc         1 JU1       0.057200
    135 H66          1.0470     1.0700     2.2300 hc         1 JU1       0.057200
    136 H67          0.0760     1.0400    -0.0920 hc         1 JU1       0.032700
    137 H68         -0.0220    -0.7070    -0.0110 hc         1 JU1       0.032700
    138 H69         -1.5250    -0.5200     1.9900 hc         1 JU1       0.039700
    139 H70         -1.4260     1.2240     1.8980 hc         1 JU1       0.039700
    140 H71         -2.4670     1.1570    -0.3830 hc         1 JU1       0.036200
    141 H72         -2.5810    -0.5870    -0.2750 hc         1 JU1       0.036200
    142 H73         -4.0400    -0.3610     1.7520 hc         1 JU1       0.037700
    143 H74         -3.9230     1.3810     1.6410 hc         1 JU1       0.037700
    144 H75         -5.0110     1.3080    -0.6150 hc         1 JU1       0.037200
    145 H76         -5.1350    -0.4350    -0.4960 hc         1 JU1       0.037200
    146 H77         -6.5600    -0.1930     1.5500 hc         1 JU1       0.037200
    147 H78         -6.4340     1.5490     1.4320 hc         1 JU1       0.037200
    148 H79         -7.5530     1.4760    -0.8070 hc         1 JU1       0.037200
    149 H80         -7.6820    -0.2660    -0.6860 hc         1 JU1       0.037200
    150 H81         -9.0850    -0.0180     1.3750 hc         1 JU1       0.037200
    151 H82         -8.9550     1.7240     1.2550 hc         1 JU1       0.037200
    152 H83        -10.0950     1.6540    -0.9730 hc         1 JU1       0.037200
    153 H84        -10.2250    -0.0880    -0.8530 hc         1 JU1       0.037200
    154 H85        -11.6130     0.1600     1.2180 hc         1 JU1       0.037200
    155 H86        -11.4830     1.9010     1.0980 hc         1 JU1       0.037200
    156 H87        -12.6350     1.8330    -1.1230 hc         1 JU1       0.036700
    157 H88        -12.7640     0.0920    -1.0050 hc         1 JU1       0.036700
    158 H89        -14.1430     0.3360     1.0720 hc         1 JU1       0.037200
    159 H90        -14.0150     2.0770     0.9530 hc         1 JU1       0.037200
    160 H91        -15.1730     2.0110    -1.2650 hc         1 JU1       0.036700
    161 H92        -15.3000     0.2690    -1.1480 hc         1 JU1       0.036700
    162 H93        -16.6760     0.5090     0.9320 hc         1 JU1       0.037200
    163 H94        -16.5510     2.2510     0.8140 hc         1 JU1       0.037200
    164 H95        -17.7110     2.1840    -1.4030 hc         1 JU1       0.036700
    165 H96        -17.8330     0.4420    -1.2880 hc         1 JU1       0.036700
    166 H97        -19.2100     0.6760     0.7920 hc         1 JU1       0.037200
    167 H98        -19.0900     2.4180     0.6760 hc         1 JU1       0.037200
    168 H99        -20.2490     2.3500    -1.5420 hc         1 JU1       0.036700
    169 H100       -20.3640     0.6080    -1.4290 hc         1 JU1       0.036700
    170 H101       -21.7450     0.8330     0.6490 hc         1 JU1       0.036700
    171 H102       -21.6320     2.5760     0.5360 hc         1 JU1       0.036700
    172 H103       -22.7870     2.5080    -1.6830 hc         1 JU1       0.036700
    173 H104       -22.8940     0.7640    -1.5760 hc         1 JU1       0.036700
    174 H105       -24.2810     0.9750     0.4990 hc         1 JU1       0.036700
    175 H106       -24.1750     2.7190     0.3930 hc         1 JU1       0.036700
    176 H107       -25.3260     2.6560    -1.8280 hc         1 JU1       0.036700
    177 H108       -25.4230     0.9110    -1.7310 hc         1 JU1       0.036700
    178 H109       -26.8160     1.1040     0.3390 hc         1 JU1       0.036700
    179 H110       -26.7220     2.8480     0.2420 hc         1 JU1       0.036700
    180 H111       -28.8740     2.0260    -0.7330 hc         1 JU1       0.031367
    181 H112       -27.8970     2.7960    -1.9810 hc         1 JU1       0.031367
    182 H113       -27.9860     1.0390    -1.8890 hc         1 JU1       0.031367
    183 CAM          6.2520    -1.9520     2.3400 c3         1 JU1       0.143600
    184 CBH          8.4050     3.9340     0.9910 c3         1 JU1      -0.071400
@<TRIPOS>BOND
     1     1     6 1   
     2     1    25 1   
     3     1    28 1   
     4     1    70 1   
     5     2     3 1   
     6     2    29 1   
     7     2    71 1   
     8     2    72 1   
     9     3     4 1   
    10     3    28 1   
    11     3    73 1   
    12     4     5 1   
    13     4    30 1   
    14     4    74 1   
    15     5     6 1   
    16     5    27 1   
    17     5    75 1   
    18     6    26 1   
    19     6    76 1   
    20     7     8 1   
    21     7    77 1   
    22     7    78 1   
    23     7    79 1   
    24     8     9 1   
    25     8    80 1   
    26     8    81 1   
    27     9    10 1   
    28     9    82 1   
    29     9    83 1   
    30    10    11 1   
    31    10    84 1   
    32    10    85 1   
    33    11    12 1   
    34    11    86 1   
    35    11    87 1   
    36    12    13 1   
    37    12    88 1   
    38    12    89 1   
    39    13    14 1   
    40    13    90 1   
    41    13    91 1   
    42    14    15 1   
    43    14    92 1   
    44    14    93 1   
    45    15    16 1   
    46    15    94 1   
    47    15    95 1   
    48    16    17 1   
    49    16    96 1   
    50    16    97 1   
    51    17    18 1   
    52    17    98 1   
    53    17    99 1   
    54    18   100 1   
    55    18   101 1   
    56    18   184 1   
    57    19    20 1   
    58    19   104 1   
    59    19   105 1   
    60    19   184 1   
    61    20    21 1   
    62    20    22 1   
    63    20   106 1   
    64    21   107 1   
    65    22    23 1   
    66    22    24 1   
    67    22   108 1   
    68    23   109 1   
    69    24    42 1   
    70    24   110 1   
    71    24   183 1   
    72    25   183 1   
    73    26   113 1   
    74    27   114 1   
    75    29   115 1   
    76    30    31 1   
    77    31    32 1   
    78    31   116 1   
    79    31   117 1   
    80    32    33 ar  
    81    32    41 ar  
    82    33    34 ar  
    83    33   118 1   
    84    34    35 ar  
    85    34   119 1   
    86    35    36 1   
    87    35    40 ar  
    88    36    37 1   
    89    36    38 1   
    90    36    39 1   
    91    37   120 1   
    92    37   121 1   
    93    37   122 1   
    94    38   123 1   
    95    38   124 1   
    96    38   125 1   
    97    39   126 1   
    98    39   127 1   
    99    39   128 1   
   100    40    41 ar  
   101    40   129 1   
   102    41   130 1   
   103    42    43 1   
   104    42   131 1   
   105    43    44 2   
   106    43    45 1   
   107    45    46 1   
   108    45   132 1   
   109    45   133 1   
   110    46    47 1   
   111    46   134 1   
   112    46   135 1   
   113    47    48 1   
   114    47   136 1   
   115    47   137 1   
   116    48    49 1   
   117    48   138 1   
   118    48   139 1   
   119    49    50 1   
   120    49   140 1   
   121    49   141 1   
   122    50    51 1   
   123    50   142 1   
   124    50   143 1   
   125    51    52 1   
   126    51   144 1   
   127    51   145 1   
   128    52    53 1   
   129    52   146 1   
   130    52   147 1   
   131    53    54 1   
   132    53   148 1   
   133    53   149 1   
   134    54    55 1   
   135    54   150 1   
   136    54   151 1   
   137    55    56 1   
   138    55   152 1   
   139    55   153 1   
   140    56    57 1   
   141    56   154 1   
   142    56   155 1   
   143    57    58 1   
   144    57   156 1   
   145    57   157 1   
   146    58    59 1   
   147    58   158 1   
   148    58   159 1   
   149    59    60 1   
   150    59   160 1   
   151    59   161 1   
   152    60    61 1   
   153    60   162 1   
   154    60   163 1   
   155    61    62 1   
   156    61   164 1   
   157    61   165 1   
   158    62    63 1   
   159    62   166 1   
   160    62   167 1   
   161    63    64 1   
   162    63   168 1   
   163    63   169 1   
   164    64    65 1   
   165    64   170 1   
   166    64   171 1   
   167    65    66 1   
   168    65   172 1   
   169    65   173 1   
   170    66    67 1   
   171    66   174 1   
   172    66   175 1   
   173    67    68 1   
   174    67   176 1   
   175    67   177 1   
   176    68    69 1   
   177    68   178 1   
   178    68   179 1   
   179    69   180 1   
   180    69   181 1   
   181    69   182 1   
   182   102   184 1   
   183   103   184 1   
   184   111   183 1   
   185   112   183 1   
@<TRIPOS>SUBSTRUCTURE
     1 JU1         1 TEMP              0 ****  ****    0 ROOT
