@<TRIPOS>MOLECULE
JU2
   18    19     1     0     0
SMALL
No Charge or Current Charge


@<TRIPOS>ATOM
      1 Br15        -0.1080    16.7470    28.6320 br         1 JU2      -0.013100
      2 C8           1.0180    16.6390    30.1440 cc         1 JU2      -0.081900
      3 C7           1.2380    17.5930    31.1130 cd         1 JU2       0.029000
      4 C10          0.6320    18.8840    31.1510 ch         1 JU2       0.353000
      5 N11          0.1210    19.9360    31.1560 n1         1 JU2      -0.435000
      6 N9           1.7940    15.5240    30.4710 na         1 JU2      -0.101000
      7 C5           2.4940    15.7800    31.6350 cc         1 JU2       0.189400
      8 C4           2.1650    17.0390    32.0380 cd         1 JU2      -0.279600
      9 C3           2.7500    17.6090    33.2600 c          1 JU2       0.620600
     10 O12          2.5150    18.7210    33.7050 o          1 JU2      -0.522000
     11 N6           3.3680    14.9600    32.3020 nc         1 JU2      -0.719100
     12 C1           3.8620    15.5140    33.3810 cd         1 JU2       0.745800
     13 N13          4.7150    14.7660    34.0550 nv         1 JU2      -1.046200
     14 N2           3.6030    16.7430    33.8610 ns         1 JU2      -0.456400
     15 HN9          1.8450    14.6600    29.9470 hn         1 JU2       0.375000
     16 HN13         5.4520    15.2530    34.5500 hn         1 JU2       0.507000
     17 HN1A         5.0120    13.9400    33.5510 hn         1 JU2       0.507000
     18 HN2          4.0280    17.0530    34.7180 hn         1 JU2       0.326500
@<TRIPOS>BOND
     1     1     2 1   
     2     2     3 2   
     3     2     6 1   
     4     3     4 1   
     5     3     8 1   
     6     4     5 3   
     7     6     7 1   
     8     6    15 1   
     9     7     8 2   
    10     7    11 1   
    11     8     9 1   
    12     9    10 2   
    13     9    14 1   
    14    11    12 2   
    15    12    13 1   
    16    12    14 1   
    17    13    16 1   
    18    13    17 1   
    19    14    18 1   
@<TRIPOS>SUBSTRUCTURE
     1 JU2         1 TEMP              0 ****  ****    0 ROOT
