@<TRIPOS>MOLECULE
JU2
   18    19     1     0     0
SMALL
abcg2


@<TRIPOS>ATOM
      1 BR15        -0.0880    16.6300    28.6620 br         1 JU2      -0.013100
      2 C8           1.0100    16.6460    30.1660 cc         1 JU2      -0.081900
      3 C7           1.1880    17.6430    31.1040 cd         1 JU2       0.029000
      4 C10          0.5520    18.8980    31.1050 ch         1 JU2       0.353000
      5 N11          0.0320    19.9290    31.1040 n1         1 JU2      -0.435000
      6 N9           1.7950    15.5730    30.4910 na         1 JU2      -0.101000
      7 C5           2.4950    15.8480    31.6370 cc         1 JU2       0.189400
      8 C4           2.1430    17.1320    32.0530 cd         1 JU2      -0.279600
      9 C3           2.7450    17.6520    33.2350 c          1 JU2       0.620600
     10 O12          2.5680    18.7480    33.7610 o          1 JU2      -0.522000
     11 N6           3.3600    15.0020    32.2230 nc         1 JU2      -0.719100
     12 C1           3.9170    15.4800    33.3190 cd         1 JU2       0.745800
     13 N13          4.7720    14.7190    34.0250 nv         1 JU2      -1.046200
     14 N2           3.6390    16.7310    33.8060 ns         1 JU2      -0.456400
     15 HN9          1.8550    14.7140    29.9630 hn         1 JU2       0.375000
     16 HN13         5.3390    15.1190    34.7550 hn         1 JU2       0.507000
     17 HN1A         5.0850    13.8580    33.6080 hn         1 JU2       0.507000
     18 HN2          4.0960    17.0400    34.6540 hn         1 JU2       0.326500
@<TRIPOS>BOND
     1     1     2 1   
     2     2     3 2   
     3     2     6 1   
     4     3     4 1   
     5     3     8 1   
     6     4     5 3   
     7     6     7 1   
     8     6    15 1   
     9     7     8 2   
    10     7    11 1   
    11     8     9 1   
    12     9    10 2   
    13     9    14 1   
    14    11    12 2   
    15    12    13 1   
    16    12    14 1   
    17    13    16 1   
    18    13    17 1   
    19    14    18 1   
@<TRIPOS>SUBSTRUCTURE
     1 JU2         1 TEMP              0 ****  ****    0 ROOT
