@<TRIPOS>MOLECULE
JU3
   44    46     1     0     0
SMALL
bcc


@<TRIPOS>ATOM
      1 C4          17.0990     5.6780    72.7600 ca         1 JU3      -0.253000
      2 C14         15.1520     6.7820    65.4050 ca         1 JU3      -0.201000
      3 C5          16.3970     5.7860    71.5780 ca         1 JU3       0.229100
      4 C6          15.0610     6.1980    71.5140 ca         1 JU3      -0.377600
      5 C11         13.4170     5.6560    67.2620 ca         1 JU3       0.225100
      6 C7          16.4430     5.5590    69.2630 cc         1 JU3       0.101100
      7 C8          15.1690     5.9710    69.0710 cd         1 JU3      -0.198400
      8 C9          14.3880     6.2860    70.2490 c          1 JU3       0.622900
      9 C10         14.6660     6.1330    67.6910 ca         1 JU3      -0.161800
     10 C12         13.0330     5.7160    65.9160 ca         1 JU3      -0.208300
     11 C13         13.9270     6.2630    64.9900 ca         1 JU3       0.184100
     12 C3          16.4300     5.9980    73.9390 ca         1 JU3       0.251100
     13 C1          14.4070     6.5090    72.7350 ca         1 JU3       0.295100
     14 C15         15.5010     6.7160    66.7360 ca         1 JU3      -0.061000
     15 C16         11.6960     5.1550    65.4930 c3         1 JU3       0.023100
     16 C17         11.7970     3.7010    65.1250 c2         1 JU3      -0.179200
     17 C18         11.1450     2.6700    65.6650 c2         1 JU3      -0.095400
     18 C19         10.1400     2.7650    66.7740 c3         1 JU3      -0.055900
     19 C2          15.0940     6.4110    73.9310 ca         1 JU3      -0.329000
     20 C20         11.3800     1.2710    65.1700 c3         1 JU3      -0.055900
     21 O1          17.0480     5.4630    70.4420 os         1 JU3      -0.195200
     22 O2          13.1820     6.6120    70.1750 o          1 JU3      -0.634100
     23 O3          13.1390     6.8970    72.7500 oh         1 JU3      -0.494100
     24 O4          17.1230     5.8870    75.0730 oh         1 JU3      -0.478100
     25 O5          13.6630     6.3380    63.6710 oh         1 JU3      -0.498100
     26 H1          18.1300     5.3530    72.7700 ha         1 JU3       0.173000
     27 H2          15.8180     7.2330    64.6810 ha         1 JU3       0.149000
     28 H3          17.1000     5.2640    68.4550 h4         1 JU3       0.191000
     29 H4          16.4510     7.1330    67.0470 ha         1 JU3       0.126000
     30 H5          11.2980     5.7180    64.6400 hc         1 JU3       0.051200
     31 H6          10.9690     5.3150    66.2860 hc         1 JU3       0.051200
     32 H7          12.5000     3.4860    64.3230 ha         1 JU3       0.111000
     33 H8           9.9700     3.7780    67.1290 hc         1 JU3       0.039367
     34 H9           9.1800     2.3580    66.4500 hc         1 JU3       0.039367
     35 H10         10.4580     2.1610    67.6280 hc         1 JU3       0.039367
     36 H11         14.5870     6.6500    74.8580 ha         1 JU3       0.157000
     37 H12         11.7320     0.6260    65.9790 hc         1 JU3       0.039367
     38 H13         10.4530     0.8260    64.8020 hc         1 JU3       0.039367
     39 H14         12.1140     1.2360    64.3660 hc         1 JU3       0.039367
     40 H15         12.8080     6.8900    71.8220 ho         1 JU3       0.486000
     41 H16         16.5820     6.1220    75.8370 ho         1 JU3       0.441000
     42 H17         12.7890     5.9930    63.4620 ho         1 JU3       0.433000
     43 H18         12.5860     5.5700    68.9700 ho         1 JU3       0.464000
     44 O6          12.5480     5.0880    68.1170 oh         1 JU3      -0.526100
@<TRIPOS>BOND
     1     1     3 ar  
     2     1    12 ar  
     3     1    26 1   
     4     2    11 ar  
     5     2    14 ar  
     6     2    27 1   
     7     3     4 ar  
     8     3    21 1   
     9     4     8 1   
    10     4    13 ar  
    11     5     9 ar  
    12     5    10 ar  
    13     5    44 1   
    14     6     7 2   
    15     6    21 1   
    16     6    28 1   
    17     7     8 1   
    18     7     9 1   
    19     8    22 2   
    20     9    14 ar  
    21    10    11 ar  
    22    10    15 1   
    23    11    25 1   
    24    12    19 ar  
    25    12    24 1   
    26    13    19 ar  
    27    13    23 1   
    28    14    29 1   
    29    15    16 1   
    30    15    30 1   
    31    15    31 1   
    32    16    17 2   
    33    16    32 1   
    34    17    18 1   
    35    17    20 1   
    36    18    33 1   
    37    18    34 1   
    38    18    35 1   
    39    19    36 1   
    40    20    37 1   
    41    20    38 1   
    42    20    39 1   
    43    23    40 1   
    44    24    41 1   
    45    25    42 1   
    46    43    44 1   
@<TRIPOS>SUBSTRUCTURE
     1 JU3         1 TEMP              0 ****  ****    0 ROOT
