@<TRIPOS>MOLECULE
JU3
   44    46     1     0     0
SMALL
No Charge or Current Charge


@<TRIPOS>ATOM
      1 C4          17.7840     6.6650    72.8000 ca         1 JU3      -0.235000
      2 C14         14.4580     6.1640    65.8200 ca         1 JU3      -0.183000
      3 C5          16.9160     6.3370    71.7500 ca         1 JU3       0.229100
      4 C6          15.5370     6.4380    71.9360 ca         1 JU3      -0.377600
      5 C11         13.3320     4.9640    68.0870 ca         1 JU3       0.225100
      6 C7          16.7180     5.9230    69.4400 cc         1 JU3       0.051100
      7 C8          15.3300     5.8120    69.5080 cd         1 JU3      -0.198400
      8 C9          14.6650     6.0640    70.8110 c          1 JU3       0.622900
      9 C10         14.5580     5.6830    68.2220 ca         1 JU3      -0.161800
     10 C12         12.6830     4.8400    66.8320 ca         1 JU3      -0.208300
     11 C13         13.2650     5.4510    65.7050 ca         1 JU3       0.184100
     12 C3          17.2800     7.1210    74.0190 ca         1 JU3       0.251100
     13 C1          15.0340     6.8930    73.1670 ca         1 JU3       0.295100
     14 C15         15.1020     6.2750    67.0580 ca         1 JU3      -0.043000
     15 C16         11.3520     4.0830    66.6740 c3         1 JU3       0.023100
     16 C17         11.4710     2.9170    65.7040 c2         1 JU3      -0.229200
     17 C18         10.7590     2.6670    64.5870 c2         1 JU3      -0.095400
     18 C19          9.6290     3.5190    64.0230 c3         1 JU3      -0.055900
     19 C2          15.9020     7.2380    74.2040 ca         1 JU3      -0.311000
     20 C20         11.0210     1.4420    63.7280 c3         1 JU3      -0.055900
     21 O1          17.4850     5.8450    70.5930 os         1 JU3      -0.195200
     22 O2          13.4500     6.0210    70.9710 o          1 JU3      -0.634100
     23 O3          13.6990     7.0050    73.3710 oh         1 JU3      -0.533100
     24 O4          18.1350     7.4430    75.0240 oh         1 JU3      -0.517100
     25 O5          12.6810     5.3450    64.4800 oh         1 JU3      -0.537100
     26 H1          18.8570     6.5640    72.6630 ha         1 JU3       0.155000
     27 H2          14.8930     6.6330    64.9420 ha         1 JU3       0.131000
     28 H3          17.3270     5.8410    68.5460 h4         1 JU3       0.241000
     29 H4          16.0170     6.8590    67.1000 ha         1 JU3       0.108000
     30 H5          10.5810     4.7970    66.3680 hc         1 JU3       0.051200
     31 H6          10.9860     3.6900    67.6290 hc         1 JU3       0.051200
     32 H7          12.2530     2.2160    66.0010 ha         1 JU3       0.161000
     33 H8           9.4000     4.4010    64.6280 hc         1 JU3       0.039367
     34 H9           9.8740     3.8740    63.0150 hc         1 JU3       0.039367
     35 H10          8.7030     2.9360    63.9490 hc         1 JU3       0.039367
     36 H11         15.4950     7.5890    75.1490 ha         1 JU3       0.139000
     37 H12         10.1300     0.8060    63.6650 hc         1 JU3       0.039367
     38 H13         11.3010     1.7280    62.7070 hc         1 JU3       0.039367
     39 H14         11.8350     0.8270    64.1310 hc         1 JU3       0.039367
     40 H15         13.2870     6.6720    72.5320 ho         1 JU3       0.525000
     41 H16         17.6010     7.7370    75.7910 ho         1 JU3       0.480000
     42 H17         11.9960     4.6460    64.5570 ho         1 JU3       0.472000
     43 H18         12.9940     4.9150    69.9470 ho         1 JU3       0.503000
     44 O6          12.7900     4.3360    69.1650 oh         1 JU3      -0.565100
@<TRIPOS>BOND
     1     1     3 ar  
     2     1    12 ar  
     3     1    26 1   
     4     2    11 ar  
     5     2    14 ar  
     6     2    27 1   
     7     3     4 ar  
     8     3    21 1   
     9     4     8 1   
    10     4    13 ar  
    11     5     9 ar  
    12     5    10 ar  
    13     5    44 1   
    14     6     7 2   
    15     6    21 1   
    16     6    28 1   
    17     7     8 1   
    18     7     9 1   
    19     8    22 2   
    20     9    14 ar  
    21    10    11 ar  
    22    10    15 1   
    23    11    25 1   
    24    12    19 ar  
    25    12    24 1   
    26    13    19 ar  
    27    13    23 1   
    28    14    29 1   
    29    15    16 1   
    30    15    30 1   
    31    15    31 1   
    32    16    17 2   
    33    16    32 1   
    34    17    18 1   
    35    17    20 1   
    36    18    33 1   
    37    18    34 1   
    38    18    35 1   
    39    19    36 1   
    40    20    37 1   
    41    20    38 1   
    42    20    39 1   
    43    23    40 1   
    44    24    41 1   
    45    25    42 1   
    46    43    44 1   
@<TRIPOS>SUBSTRUCTURE
     1 JU3         1 TEMP              0 ****  ****    0 ROOT
