@<TRIPOS>MOLECULE
JU4
  172   173     1     0     0
SMALL
abcg2


@<TRIPOS>ATOM
      1 C4          -3.9480    -4.3950     0.9530 c6         1 JU4       0.149300
      2 C5          -5.4190    -4.1170     1.2560 c6         1 JU4       0.151300
      3 C6          -6.2800    -4.5950     0.0920 c6         1 JU4       0.116300
      4 O2          -4.4440    -4.1840    -1.4090 os         1 JU4      -0.448000
      5 C2          -2.1700    -3.9060    -0.7900 c3         1 JU4       0.168600
      6 CBT        -16.8110    16.2510     1.7290 c3         1 JU4      -0.088100
      7 CBS        -16.7320    14.7320     1.8030 c3         1 JU4      -0.074400
      8 CBR        -15.3950    14.1850     1.3170 c3         1 JU4      -0.075400
      9 CBQ        -15.3010    12.6670     1.3870 c3         1 JU4      -0.074400
     10 CBP        -13.9660    12.1230     0.8940 c3         1 JU4      -0.074400
     11 CBO        -13.8690    10.6040     0.9670 c3         1 JU4      -0.074400
     12 CBN        -12.5350    10.0610     0.4680 c3         1 JU4      -0.074400
     13 CBM        -12.4360     8.5430     0.5460 c3         1 JU4      -0.074400
     14 CBL        -11.1070     7.9990     0.0350 c3         1 JU4      -0.074400
     15 CBK        -11.0060     6.4820     0.1190 c3         1 JU4      -0.074400
     16 CBJ         -9.6910     5.9330    -0.4200 c3         1 JU4      -0.074400
     17 CBI         -9.5860     4.4170    -0.3200 c3         1 JU4      -0.075400
     18 CBG         -8.2030     2.3460    -0.7870 c3         1 JU4      -0.107400
     19 CAQ         -7.0240     1.7420    -1.5460 c3         1 JU4       0.136300
     20 OAR         -5.8030     2.3370    -1.1670 oh         1 JU4      -0.638000
     21 CAP         -6.9980     0.2040    -1.4300 c3         1 JU4       0.129300
     22 OAS         -8.2130    -0.3290    -1.9030 oh         1 JU4      -0.640000
     23 CAN         -5.7940    -0.4370    -2.1540 c3         1 JU4       0.087700
     24 CAM         -5.9730    -1.9250    -2.4200 c3         1 JU4       0.144600
     25 O1          -6.1150    -2.5940    -1.1820 os         1 JU4      -0.473000
     26 C1          -5.8120    -3.9490    -1.2170 c6         1 JU4       0.357300
     27 O5          -7.6200    -4.2930     0.3880 oh         1 JU4      -0.710000
     28 O3          -5.7740    -4.7430     2.4620 oh         1 JU4      -0.726000
     29 C3          -3.6080    -3.7100    -0.3660 c6         1 JU4       0.172300
     30 O6          -1.9080    -3.0450    -1.8720 oh         1 JU4      -0.712000
     31 O4          -3.6570    -5.7660     0.8220 os         1 JU4      -0.451000
     32 CAT         -3.4120    -6.4850     2.0090 c3         1 JU4       0.213900
     33 CAU         -2.4460    -7.5980     1.7080 ca         1 JU4      -0.080300
     34 CAV         -1.2370    -7.3210     1.0780 ca         1 JU4      -0.078000
     35 CAW         -0.3320    -8.3340     0.8160 ca         1 JU4       0.115000
     36 CL1          1.1570    -7.9560     0.0340 cl         1 JU4      -0.176000
     37 CAX         -0.6250    -9.6460     1.1800 ca         1 JU4       0.121000
     38 CL2          0.4910   -10.9180     0.8590 cl         1 JU4      -0.171000
     39 CAY         -1.8270    -9.9290     1.8070 ca         1 JU4      -0.097000
     40 CAZ         -2.7310    -8.9090     2.0630 ca         1 JU4      -0.090000
     41 NAO         -4.5710    -0.2320    -1.4140 ns         1 JU4      -0.501900
     42 CBE         -3.4420     0.2740    -1.9400 c          1 JU4       0.616100
     43 OBF         -3.3540     0.6380    -3.1040 o          1 JU4      -0.601100
     44 CBU         -2.2830     0.3700    -0.9690 c3         1 JU4      -0.150400
     45 CBV         -0.9320     0.4690    -1.6570 c3         1 JU4      -0.065400
     46 CBW          0.2280     0.5000    -0.6700 c3         1 JU4      -0.075400
     47 CBX          1.5770     0.6400    -1.3650 c3         1 JU4      -0.075400
     48 CBY          2.7610     0.6670    -0.4070 c3         1 JU4      -0.073400
     49 CBZ          4.0960     0.8270    -1.1230 c3         1 JU4      -0.075400
     50 CCA          5.2940     0.8610    -0.1830 c3         1 JU4      -0.073400
     51 CCB          6.6200     1.0300    -0.9150 c3         1 JU4      -0.074400
     52 CCC          7.8270     1.0690     0.0130 c3         1 JU4      -0.073400
     53 CCD          9.1460     1.2410    -0.7300 c3         1 JU4      -0.074400
     54 CCE         10.3600     1.2830     0.1900 c3         1 JU4      -0.074400
     55 CCF         11.6750     1.4540    -0.5600 c3         1 JU4      -0.074400
     56 CCG         12.8920     1.4970     0.3550 c3         1 JU4      -0.074400
     57 CCH         14.2050     1.6660    -0.3990 c3         1 JU4      -0.074400
     58 CCI         15.4240     1.7070     0.5140 c3         1 JU4      -0.074400
     59 CCJ         16.7370     1.8720    -0.2410 c3         1 JU4      -0.074400
     60 CCK         17.9560     1.9100     0.6710 c3         1 JU4      -0.074400
     61 CCL         19.2700     2.0690    -0.0840 c3         1 JU4      -0.074400
     62 CCM         20.4890     2.1030     0.8310 c3         1 JU4      -0.074400
     63 CCN         21.8040     2.2540     0.0770 c3         1 JU4      -0.074400
     64 CCO         23.0210     2.2830     0.9940 c3         1 JU4      -0.074400
     65 CCP         24.3400     2.4250     0.2430 c3         1 JU4      -0.074400
     66 CCQ         25.5540     2.4500     1.1630 c3         1 JU4      -0.075400
     67 CCR         26.8760     2.5800     0.4180 c3         1 JU4      -0.074400
     68 CCS         28.0790     2.6010     1.3510 c3         1 JU4      -0.088100
     69 H1          -3.3310    -3.9480     1.7470 h1         1 JU4       0.051700
     70 H2          -5.5250    -3.0250     1.3450 h1         1 JU4       0.055700
     71 H3          -6.1370    -5.6780    -0.0190 h1         1 JU4       0.068700
     72 H4          -1.5310    -3.6770     0.0730 h1         1 JU4       0.034200
     73 H5          -1.9970    -4.9560    -1.0560 h1         1 JU4       0.034200
     74 H6         -16.6690    16.6050     0.7060 hc         1 JU4       0.031367
     75 H7         -17.7770    16.6210     2.0750 hc         1 JU4       0.031367
     76 H8         -16.0390    16.7150     2.3460 hc         1 JU4       0.031367
     77 H9         -16.9020    14.4070     2.8340 hc         1 JU4       0.036700
     78 H10        -17.5400    14.2920     1.2100 hc         1 JU4       0.036700
     79 H11        -15.2260    14.5120     0.2840 hc         1 JU4       0.036700
     80 H12        -14.5850    14.6270     1.9090 hc         1 JU4       0.036700
     81 H13        -15.4660    12.3410     2.4200 hc         1 JU4       0.036700
     82 H14        -16.1130    12.2250     0.7980 hc         1 JU4       0.036700
     83 H15        -13.8030    12.4470    -0.1400 hc         1 JU4       0.036700
     84 H16        -13.1540    12.5670     1.4800 hc         1 JU4       0.036700
     85 H17        -14.0280    10.2800     2.0020 hc         1 JU4       0.036700
     86 H18        -14.6830    10.1600     0.3840 hc         1 JU4       0.036700
     87 H19        -12.3780    10.3830    -0.5680 hc         1 JU4       0.037700
     88 H20        -11.7210    10.5080     1.0490 hc         1 JU4       0.037700
     89 H21        -12.5850     8.2230     1.5830 hc         1 JU4       0.036700
     90 H22        -13.2550     8.0960    -0.0290 hc         1 JU4       0.036700
     91 H23        -10.9630     8.3150    -1.0050 hc         1 JU4       0.037700
     92 H24        -10.2860     8.4500     0.6040 hc         1 JU4       0.037700
     93 H25        -11.1320     6.1680     1.1620 hc         1 JU4       0.036700
     94 H26        -11.8380     6.0310    -0.4330 hc         1 JU4       0.036700
     95 H27         -9.5750     6.2370    -1.4670 hc         1 JU4       0.038200
     96 H28         -8.8550     6.3920     0.1200 hc         1 JU4       0.038200
     97 H29         -9.6550     4.1180     0.7330 hc         1 JU4       0.036700
     98 H30        -10.4480     3.9600    -0.8190 hc         1 JU4       0.036700
     99 H31         -8.2640     4.1330    -1.9870 hc         1 JU4       0.044700
    100 H32         -7.4410     4.3410    -0.4570 hc         1 JU4       0.044700
    101 H33         -8.1270     2.0770     0.2750 hc         1 JU4       0.048700
    102 H34         -9.1300     1.8940    -1.1480 hc         1 JU4       0.048700
    103 H35         -7.1380     1.9870    -2.6110 h1         1 JU4       0.069700
    104 H36         -5.6600     2.1670    -0.2300 ho         1 JU4       0.434000
    105 H37         -6.9510    -0.0700    -0.3690 h1         1 JU4       0.078700
    106 H38         -8.3490    -0.0350    -2.8110 ho         1 JU4       0.438000
    107 H39         -5.6690     0.0420    -3.1290 h1         1 JU4       0.091700
    108 H40         -6.8400    -2.1120    -3.0620 h1         1 JU4       0.050200
    109 H41         -5.0850    -2.2720    -2.9570 h1         1 JU4       0.050200
    110 H42         -6.3060    -4.4350    -2.0710 h2         1 JU4       0.070700
    111 H43         -8.1900    -4.8910    -0.1050 ho         1 JU4       0.512000
    112 H44         -6.7270    -4.6530     2.5730 ho         1 JU4       0.526000
    113 H45         -3.7560    -2.6340    -0.2110 h1         1 JU4       0.053700
    114 H46         -0.9780    -3.1250    -2.0990 ho         1 JU4       0.507000
    115 H47         -2.9760    -5.8300     2.7740 h1         1 JU4       0.046700
    116 H48         -4.3320    -6.8990     2.4290 h1         1 JU4       0.046700
    117 H49         -0.9870    -6.3060     0.7970 ha         1 JU4       0.130000
    118 H50         -2.0600   -10.9480     2.0850 ha         1 JU4       0.133000
    119 H51         -3.6700    -9.1490     2.5450 ha         1 JU4       0.122000
    120 H52         -4.5570    -0.5320    -0.4530 hn         1 JU4       0.308500
    121 H53         -2.4450     1.2490    -0.3340 hc         1 JU4       0.051200
    122 H54         -2.2980    -0.4920    -0.2980 hc         1 JU4       0.051200
    123 H55         -0.8050    -0.3810    -2.3320 hc         1 JU4       0.056700
    124 H56         -0.8990     1.3650    -2.2820 hc         1 JU4       0.056700
    125 H57          0.0930     1.3300     0.0320 hc         1 JU4       0.032700
    126 H58          0.2190    -0.4140    -0.0670 hc         1 JU4       0.032700
    127 H59          1.7050    -0.1850    -2.0750 hc         1 JU4       0.040200
    128 H60          1.5790     1.5570    -1.9660 hc         1 JU4       0.040200
    129 H61          2.6310     1.4860     0.3090 hc         1 JU4       0.036200
    130 H62          2.7710    -0.2550     0.1850 hc         1 JU4       0.036200
    131 H63          4.2230     0.0090    -1.8410 hc         1 JU4       0.038200
    132 H64          4.0790     1.7480    -1.7180 hc         1 JU4       0.038200
    133 H65          5.1690     1.6780     0.5360 hc         1 JU4       0.036700
    134 H66          5.3190    -0.0620     0.4080 hc         1 JU4       0.036700
    135 H67          6.7430     0.2120    -1.6340 hc         1 JU4       0.037700
    136 H68          6.5910     1.9510    -1.5090 hc         1 JU4       0.037700
    137 H69          7.7060     1.8860     0.7320 hc         1 JU4       0.036700
    138 H70          7.8600     0.1470     0.6050 hc         1 JU4       0.036700
    139 H71          9.2660     0.4230    -1.4500 hc         1 JU4       0.037200
    140 H72          9.1110     2.1610    -1.3240 hc         1 JU4       0.037200
    141 H73         10.2420     2.1010     0.9080 hc         1 JU4       0.036700
    142 H74         10.3970     0.3620     0.7840 hc         1 JU4       0.036700
    143 H75         11.7920     0.6360    -1.2790 hc         1 JU4       0.037200
    144 H76         11.6370     2.3740    -1.1550 hc         1 JU4       0.037200
    145 H77         12.7770     2.3170     1.0730 hc         1 JU4       0.036700
    146 H78         12.9300     0.5770     0.9500 hc         1 JU4       0.036700
    147 H79         14.3190     0.8470    -1.1180 hc         1 JU4       0.037200
    148 H80         14.1670     2.5860    -0.9940 hc         1 JU4       0.037200
    149 H81         15.3120     2.5280     1.2310 hc         1 JU4       0.036700
    150 H82         15.4610     0.7880     1.1100 hc         1 JU4       0.036700
    151 H83         16.8480     1.0520    -0.9600 hc         1 JU4       0.036700
    152 H84         16.7010     2.7920    -0.8370 hc         1 JU4       0.036700
    153 H85         17.8470     2.7320     1.3880 hc         1 JU4       0.036700
    154 H86         17.9900     0.9910     1.2690 hc         1 JU4       0.036700
    155 H87         19.3780     1.2480    -0.8010 hc         1 JU4       0.036700
    156 H88         19.2380     2.9880    -0.6800 hc         1 JU4       0.036700
    157 H89         20.3820     2.9260     1.5460 hc         1 JU4       0.037200
    158 H90         20.5170     1.1850     1.4290 hc         1 JU4       0.037200
    159 H91         21.9100     1.4310    -0.6380 hc         1 JU4       0.037200
    160 H92         21.7780     3.1720    -0.5200 hc         1 JU4       0.037200
    161 H93         22.9180     3.1090     1.7060 hc         1 JU4       0.036700
    162 H94         23.0430     1.3670     1.5950 hc         1 JU4       0.036700
    163 H95         24.4420     1.5980    -0.4690 hc         1 JU4       0.036700
    164 H96         24.3200     3.3410    -0.3580 hc         1 JU4       0.036700
    165 H97         25.4540     3.2800     1.8720 hc         1 JU4       0.036700
    166 H98         25.5690     1.5370     1.7690 hc         1 JU4       0.036700
    167 H99         26.9750     1.7500    -0.2900 hc         1 JU4       0.036700
    168 H100        26.8640     3.4920    -0.1870 hc         1 JU4       0.036700
    169 H101        29.0170     2.6870     0.8010 hc         1 JU4       0.031367
    170 H102        28.0230     3.4430     2.0430 hc         1 JU4       0.031367
    171 H103        28.1290     1.6880     1.9480 hc         1 JU4       0.031367
    172 CBH         -8.3040     3.8610    -0.9260 c3         1 JU4      -0.071400
@<TRIPOS>BOND
     1     1     2 1   
     2     1    29 1   
     3     1    31 1   
     4     1    69 1   
     5     2     3 1   
     6     2    28 1   
     7     2    70 1   
     8     3    26 1   
     9     3    27 1   
    10     3    71 1   
    11     4    26 1   
    12     4    29 1   
    13     5    29 1   
    14     5    30 1   
    15     5    72 1   
    16     5    73 1   
    17     6     7 1   
    18     6    74 1   
    19     6    75 1   
    20     6    76 1   
    21     7     8 1   
    22     7    77 1   
    23     7    78 1   
    24     8     9 1   
    25     8    79 1   
    26     8    80 1   
    27     9    10 1   
    28     9    81 1   
    29     9    82 1   
    30    10    11 1   
    31    10    83 1   
    32    10    84 1   
    33    11    12 1   
    34    11    85 1   
    35    11    86 1   
    36    12    13 1   
    37    12    87 1   
    38    12    88 1   
    39    13    14 1   
    40    13    89 1   
    41    13    90 1   
    42    14    15 1   
    43    14    91 1   
    44    14    92 1   
    45    15    16 1   
    46    15    93 1   
    47    15    94 1   
    48    16    17 1   
    49    16    95 1   
    50    16    96 1   
    51    17    97 1   
    52    17    98 1   
    53    17   172 1   
    54    18    19 1   
    55    18   101 1   
    56    18   102 1   
    57    18   172 1   
    58    19    20 1   
    59    19    21 1   
    60    19   103 1   
    61    20   104 1   
    62    21    22 1   
    63    21    23 1   
    64    21   105 1   
    65    22   106 1   
    66    23    24 1   
    67    23    41 1   
    68    23   107 1   
    69    24    25 1   
    70    24   108 1   
    71    24   109 1   
    72    25    26 1   
    73    26   110 1   
    74    27   111 1   
    75    28   112 1   
    76    29   113 1   
    77    30   114 1   
    78    31    32 1   
    79    32    33 1   
    80    32   115 1   
    81    32   116 1   
    82    33    34 ar  
    83    33    40 ar  
    84    34    35 ar  
    85    34   117 1   
    86    35    36 1   
    87    35    37 ar  
    88    37    38 1   
    89    37    39 ar  
    90    39    40 ar  
    91    39   118 1   
    92    40   119 1   
    93    41    42 1   
    94    41   120 1   
    95    42    43 2   
    96    42    44 1   
    97    44    45 1   
    98    44   121 1   
    99    44   122 1   
   100    45    46 1   
   101    45   123 1   
   102    45   124 1   
   103    46    47 1   
   104    46   125 1   
   105    46   126 1   
   106    47    48 1   
   107    47   127 1   
   108    47   128 1   
   109    48    49 1   
   110    48   129 1   
   111    48   130 1   
   112    49    50 1   
   113    49   131 1   
   114    49   132 1   
   115    50    51 1   
   116    50   133 1   
   117    50   134 1   
   118    51    52 1   
   119    51   135 1   
   120    51   136 1   
   121    52    53 1   
   122    52   137 1   
   123    52   138 1   
   124    53    54 1   
   125    53   139 1   
   126    53   140 1   
   127    54    55 1   
   128    54   141 1   
   129    54   142 1   
   130    55    56 1   
   131    55   143 1   
   132    55   144 1   
   133    56    57 1   
   134    56   145 1   
   135    56   146 1   
   136    57    58 1   
   137    57   147 1   
   138    57   148 1   
   139    58    59 1   
   140    58   149 1   
   141    58   150 1   
   142    59    60 1   
   143    59   151 1   
   144    59   152 1   
   145    60    61 1   
   146    60   153 1   
   147    60   154 1   
   148    61    62 1   
   149    61   155 1   
   150    61   156 1   
   151    62    63 1   
   152    62   157 1   
   153    62   158 1   
   154    63    64 1   
   155    63   159 1   
   156    63   160 1   
   157    64    65 1   
   158    64   161 1   
   159    64   162 1   
   160    65    66 1   
   161    65   163 1   
   162    65   164 1   
   163    66    67 1   
   164    66   165 1   
   165    66   166 1   
   166    67    68 1   
   167    67   167 1   
   168    67   168 1   
   169    68   169 1   
   170    68   170 1   
   171    68   171 1   
   172    99   172 1   
   173   100   172 1   
@<TRIPOS>SUBSTRUCTURE
     1 JU4         1 TEMP              0 ****  ****    0 ROOT
