@<TRIPOS>MOLECULE
JU4
  172   173     1     0     0
SMALL
No Charge or Current Charge


@<TRIPOS>ATOM
      1 C4          -2.0750    -3.2450     0.1360 c6         1 JU4       0.149300
      2 C5          -3.2030    -2.7290     1.0950 c6         1 JU4       0.151300
      3 C6          -4.5430    -3.4670     0.8050 c6         1 JU4       0.116300
      4 O2          -3.8320    -3.7280    -1.5530 os         1 JU4      -0.448000
      5 C2          -1.5240    -3.5410    -2.3850 c3         1 JU4       0.168600
      6 CBT        -18.4940    15.7010     1.9220 c3         1 JU4      -0.088100
      7 CBS        -18.2220    14.1910     2.0550 c3         1 JU4      -0.074400
      8 CBR        -16.7940    13.7940     1.6230 c3         1 JU4      -0.075400
      9 CBQ        -16.5260    12.2780     1.7430 c3         1 JU4      -0.074400
     10 CBP        -15.1080    11.8740     1.2840 c3         1 JU4      -0.074400
     11 CBO        -14.8570    10.3530     1.3800 c3         1 JU4      -0.074400
     12 CBN        -13.4560     9.9340     0.8830 c3         1 JU4      -0.074400
     13 CBM        -13.2280     8.4070     0.9510 c3         1 JU4      -0.074400
     14 CBL        -11.8480     7.9730     0.4130 c3         1 JU4      -0.074400
     15 CBK        -11.6390     6.4420     0.4540 c3         1 JU4      -0.074400
     16 CBJ        -10.2740     6.0000    -0.1160 c3         1 JU4      -0.074400
     17 CBI        -10.0780     4.4680    -0.1010 c3         1 JU4      -0.075400
     18 CBG         -8.5360     2.4870    -0.7100 c3         1 JU4      -0.107400
     19 CAQ         -7.2400     2.0050    -1.4230 c3         1 JU4       0.136300
     20 OAR         -6.1170     2.5560    -0.7090 oh         1 JU4      -0.638000
     21 CAP         -7.1090     0.4380    -1.5200 c3         1 JU4       0.129300
     22 OAS         -8.3330    -0.1370    -2.0290 oh         1 JU4      -0.640000
     23 CAN         -5.9230    -0.0750    -2.4120 c3         1 JU4       0.087700
     24 CAM         -5.7200    -1.6120    -2.3040 c3         1 JU4       0.144600
     25 O1          -5.2440    -1.9190    -0.9770 os         1 JU4      -0.473000
     26 C1          -4.9200    -3.2970    -0.7050 c6         1 JU4       0.357300
     27 O5          -5.5770    -2.9470     1.6790 oh         1 JU4      -0.710000
     28 O3          -2.8890    -2.8430     2.4960 oh         1 JU4      -0.726000
     29 C3          -2.5670    -3.0420    -1.3300 c6         1 JU4       0.172300
     30 O6          -1.9410    -3.3290    -3.7480 oh         1 JU4      -0.712000
     31 O4          -1.6920    -4.6350     0.3480 os         1 JU4      -0.451000
     32 CAT         -0.9720    -4.9770     1.5460 c3         1 JU4       0.213900
     33 CAU         -0.3640    -6.3590     1.3510 ca         1 JU4      -0.080300
     34 CAV          0.8500    -6.5070     0.6510 ca         1 JU4      -0.078000
     35 CAW          1.4120    -7.7820     0.4620 ca         1 JU4       0.115000
     36 Cl1          2.9320    -7.9240    -0.4220 cl         1 JU4      -0.176000
     37 CAX          0.7580    -8.9220     0.9740 ca         1 JU4       0.121000
     38 Cl2          1.4330   -10.5370     0.7540 cl         1 JU4      -0.171000
     39 CAY         -0.4530    -8.7780     1.6720 ca         1 JU4      -0.097000
     40 CAZ         -1.0140    -7.5010     1.8600 ca         1 JU4      -0.090000
     41 NAO         -4.6610     0.6360    -2.1510 ns         1 JU4      -0.501900
     42 CBE         -3.5970     0.7080    -3.0160 c          1 JU4       0.616100
     43 OBF         -3.6220     0.2000    -4.1280 o          1 JU4      -0.601100
     44 CBU         -2.4000     1.5140    -2.5010 c3         1 JU4      -0.150400
     45 CBV         -1.2140     0.5900    -2.1370 c3         1 JU4      -0.065400
     46 CBW          0.0520     1.3630    -1.7140 c3         1 JU4      -0.075400
     47 CBX          1.2570     0.4370    -1.4380 c3         1 JU4      -0.075400
     48 CBY          2.5230     1.2130    -1.0180 c3         1 JU4      -0.073400
     49 CBZ          3.7620     0.3080    -0.8420 c3         1 JU4      -0.075400
     50 CCA          5.0270     1.1030    -0.4510 c3         1 JU4      -0.073400
     51 CCB          6.2990     0.2310    -0.3630 c3         1 JU4      -0.074400
     52 CCC          7.5570     1.0540    -0.0120 c3         1 JU4      -0.073400
     53 CCD          8.8560     0.2180     0.0050 c3         1 JU4      -0.074400
     54 CCE         10.1050     1.0700     0.3160 c3         1 JU4      -0.074400
     55 CCF         11.4230     0.2650     0.2760 c3         1 JU4      -0.074400
     56 CCG         12.6620     1.1420     0.5550 c3         1 JU4      -0.074400
     57 CCH         13.9940     0.3660     0.4620 c3         1 JU4      -0.074400
     58 CCI         15.2240     1.2620     0.7240 c3         1 JU4      -0.074400
     59 CCJ         16.5670     0.5150     0.5770 c3         1 JU4      -0.074400
     60 CCK         17.7880     1.4240     0.8340 c3         1 JU4      -0.074400
     61 CCL         19.1380     0.7020     0.6310 c3         1 JU4      -0.074400
     62 CCM         20.3540     1.6190     0.8850 c3         1 JU4      -0.074400
     63 CCN         21.7060     0.9170     0.6300 c3         1 JU4      -0.074400
     64 CCO         22.9200     1.8390     0.8810 c3         1 JU4      -0.074400
     65 CCP         24.2720     1.1560     0.5850 c3         1 JU4      -0.074400
     66 CCQ         25.4830     2.0810     0.8380 c3         1 JU4      -0.075400
     67 CCR         26.8360     1.4080     0.5200 c3         1 JU4      -0.074400
     68 CCS         28.0440     2.3300     0.7750 c3         1 JU4      -0.088100
     69 H1          -1.1820    -2.6200     0.2810 h1         1 JU4       0.051700
     70 H2          -3.3560    -1.6640     0.8580 h1         1 JU4       0.055700
     71 H3          -4.3970    -4.5410     0.9950 h1         1 JU4       0.068700
     72 H4          -0.5770    -3.0160    -2.1980 h1         1 JU4       0.034200
     73 H5          -1.3420    -4.6100    -2.2130 h1         1 JU4       0.034200
     74 H6         -18.3690    16.0280     0.8830 hc         1 JU4       0.031367
     75 H7         -19.5200    15.9340     2.2330 hc         1 JU4       0.031367
     76 H8         -17.8050    16.2770     2.5520 hc         1 JU4       0.031367
     77 H9         -18.3860    13.8880     3.0970 hc         1 JU4       0.036700
     78 H10        -18.9520    13.6440     1.4440 hc         1 JU4       0.036700
     79 H11        -16.6320    14.1070     0.5840 hc         1 JU4       0.036700
     80 H12        -16.0660    14.3390     2.2390 hc         1 JU4       0.036700
     81 H13        -16.6690    11.9680     2.7860 hc         1 JU4       0.036700
     82 H14        -17.2660    11.7350     1.1430 hc         1 JU4       0.036700
     83 H15        -14.9600    12.1980     0.2460 hc         1 JU4       0.036700
     84 H16        -14.3650    12.4030     1.8930 hc         1 JU4       0.036700
     85 H17        -14.9820    10.0330     2.4220 hc         1 JU4       0.036700
     86 H18        -15.6180     9.8280     0.7900 hc         1 JU4       0.036700
     87 H19        -13.3270    10.2710    -0.1530 hc         1 JU4       0.037700
     88 H20        -12.6910    10.4420     1.4840 hc         1 JU4       0.037700
     89 H21        -13.3330     8.0730     1.9910 hc         1 JU4       0.036700
     90 H22        -14.0130     7.9030     0.3730 hc         1 JU4       0.036700
     91 H23        -11.7390     8.3230    -0.6210 hc         1 JU4       0.037700
     92 H24        -11.0610     8.4610     1.0010 hc         1 JU4       0.037700
     93 H25        -11.7280     6.0940     1.4900 hc         1 JU4       0.036700
     94 H26        -12.4410     5.9560    -0.1170 hc         1 JU4       0.036700
     95 H27        -10.1810     6.3630    -1.1470 hc         1 JU4       0.038200
     96 H28         -9.4710     6.4730     0.4630 hc         1 JU4       0.038200
     97 H29        -10.1620     4.1010     0.9300 hc         1 JU4       0.036700
     98 H30        -10.8880     3.9990    -0.6750 hc         1 JU4       0.036700
     99 H31         -8.6330     4.4120    -1.7140 hc         1 JU4       0.044700
    100 H32         -7.9170     4.4910    -0.1030 hc         1 JU4       0.044700
    101 H33         -8.5500     2.1050     0.3180 hc         1 JU4       0.048700
    102 H34         -9.4080     2.0550    -1.2150 hc         1 JU4       0.048700
    103 H35         -7.2520     2.4020    -2.4490 h1         1 JU4       0.069700
    104 H36         -6.3040     3.5110    -0.5630 ho         1 JU4       0.434000
    105 H37         -6.9370     0.0710    -0.4990 h1         1 JU4       0.078700
    106 H38         -8.5750     0.3450    -2.8500 ho         1 JU4       0.438000
    107 H39         -6.1940     0.1380    -3.4550 h1         1 JU4       0.091700
    108 H40         -6.6630    -2.1340    -2.5100 h1         1 JU4       0.050200
    109 H41         -4.9900    -1.9300    -3.0600 h1         1 JU4       0.050200
    110 H42         -5.8030    -3.9190    -0.9170 h2         1 JU4       0.070700
    111 H43         -5.9670    -2.1730     1.2040 ho         1 JU4       0.512000
    112 H44         -3.7720    -2.8640     2.9380 ho         1 JU4       0.526000
    113 H45         -2.7220    -1.9690    -1.5060 h1         1 JU4       0.053700
    114 H46         -1.2720    -3.7650    -4.3260 ho         1 JU4       0.507000
    115 H47         -0.1700    -4.2520     1.7410 h1         1 JU4       0.046700
    116 H48         -1.6360    -4.9980     2.4180 h1         1 JU4       0.046700
    117 H49          1.3570    -5.6330     0.2510 ha         1 JU4       0.130000
    118 H50         -0.9580    -9.6560     2.0670 ha         1 JU4       0.133000
    119 H51         -1.9540    -7.4010     2.3980 ha         1 JU4       0.122000
    120 H52         -4.5930     1.1700    -1.2910 hn         1 JU4       0.308500
    121 H53         -2.0760     2.2010    -3.2920 hc         1 JU4       0.051200
    122 H54         -2.6830     2.0830    -1.6080 hc         1 JU4       0.051200
    123 H55         -1.5130    -0.0740    -1.3170 hc         1 JU4       0.056700
    124 H56         -0.9760    -0.0470    -2.9990 hc         1 JU4       0.056700
    125 H57          0.3210     2.0740    -2.5050 hc         1 JU4       0.032700
    126 H58         -0.1680     1.9530    -0.8140 hc         1 JU4       0.032700
    127 H59          0.9940    -0.2810    -0.6510 hc         1 JU4       0.040200
    128 H60          1.4750    -0.1440    -2.3430 hc         1 JU4       0.040200
    129 H61          2.7440     1.9750    -1.7770 hc         1 JU4       0.036200
    130 H62          2.3250     1.7450    -0.0790 hc         1 JU4       0.036200
    131 H63          3.5560    -0.4480    -0.0740 hc         1 JU4       0.038200
    132 H64          3.9500    -0.2290    -1.7800 hc         1 JU4       0.038200
    133 H65          5.1910     1.8970    -1.1910 hc         1 JU4       0.036700
    134 H66          4.8590     1.5960     0.5140 hc         1 JU4       0.036700
    135 H67          6.1530    -0.5520     0.3920 hc         1 JU4       0.037700
    136 H68          6.4560    -0.2740    -1.3250 hc         1 JU4       0.037700
    137 H69          7.6680     1.8660    -0.7430 hc         1 JU4       0.036700
    138 H70          7.4170     1.5250     0.9690 hc         1 JU4       0.036700
    139 H71          8.7650    -0.5820     0.7510 hc         1 JU4       0.037200
    140 H72          8.9850    -0.2660    -0.9720 hc         1 JU4       0.037200
    141 H73         10.1670     1.8910    -0.4090 hc         1 JU4       0.036700
    142 H74          9.9920     1.5270     1.3070 hc         1 JU4       0.036700
    143 H75         11.3770    -0.5460     1.0140 hc         1 JU4       0.037200
    144 H76         11.5270    -0.2040    -0.7110 hc         1 JU4       0.037200
    145 H77         12.6820     1.9710    -0.1630 hc         1 JU4       0.036700
    146 H78         12.5720     1.5860     1.5540 hc         1 JU4       0.036700
    147 H79         13.9860    -0.4580     1.1850 hc         1 JU4       0.037200
    148 H80         14.0810    -0.0820    -0.5360 hc         1 JU4       0.037200
    149 H81         15.2070     2.1080     0.0250 hc         1 JU4       0.036700
    150 H82         15.1530     1.6830     1.7350 hc         1 JU4       0.036700
    151 H83         16.5910    -0.3300     1.2760 hc         1 JU4       0.036700
    152 H84         16.6360     0.0970    -0.4350 hc         1 JU4       0.036700
    153 H85         17.7400     2.2890     0.1600 hc         1 JU4       0.036700
    154 H86         17.7370     1.8150     1.8580 hc         1 JU4       0.036700
    155 H87         19.1900    -0.1630     1.3030 hc         1 JU4       0.036700
    156 H88         19.1860     0.3150    -0.3950 hc         1 JU4       0.036700
    157 H89         20.2810     2.5010     0.2370 hc         1 JU4       0.037200
    158 H90         20.3240     1.9790     1.9210 hc         1 JU4       0.037200
    159 H91         21.7840     0.0340     1.2760 hc         1 JU4       0.037200
    160 H92         21.7350     0.5600    -0.4070 hc         1 JU4       0.037200
    161 H93         22.8260     2.7360     0.2560 hc         1 JU4       0.036700
    162 H94         22.9060     2.1750     1.9260 hc         1 JU4       0.036700
    163 H95         24.3680     0.2580     1.2090 hc         1 JU4       0.036700
    164 H96         24.2860     0.8230    -0.4610 hc         1 JU4       0.036700
    165 H97         25.3800     2.9860     0.2260 hc         1 JU4       0.036700
    166 H98         25.4780     2.4010     1.8870 hc         1 JU4       0.036700
    167 H99         26.9440     0.5010     1.1280 hc         1 JU4       0.036700
    168 H100        26.8460     1.0910    -0.5310 hc         1 JU4       0.036700
    169 H101        28.9790     1.8120     0.5310 hc         1 JU4       0.031367
    170 H102        27.9810     3.2330     0.1570 hc         1 JU4       0.031367
    171 H103        28.0850     2.6330     1.8290 hc         1 JU4       0.031367
    172 CBH         -8.7200     4.0270    -0.6900 c3         1 JU4      -0.071400
@<TRIPOS>BOND
     1     1     2 1   
     2     1    29 1   
     3     1    31 1   
     4     1    69 1   
     5     2     3 1   
     6     2    28 1   
     7     2    70 1   
     8     3    26 1   
     9     3    27 1   
    10     3    71 1   
    11     4    26 1   
    12     4    29 1   
    13     5    29 1   
    14     5    30 1   
    15     5    72 1   
    16     5    73 1   
    17     6     7 1   
    18     6    74 1   
    19     6    75 1   
    20     6    76 1   
    21     7     8 1   
    22     7    77 1   
    23     7    78 1   
    24     8     9 1   
    25     8    79 1   
    26     8    80 1   
    27     9    10 1   
    28     9    81 1   
    29     9    82 1   
    30    10    11 1   
    31    10    83 1   
    32    10    84 1   
    33    11    12 1   
    34    11    85 1   
    35    11    86 1   
    36    12    13 1   
    37    12    87 1   
    38    12    88 1   
    39    13    14 1   
    40    13    89 1   
    41    13    90 1   
    42    14    15 1   
    43    14    91 1   
    44    14    92 1   
    45    15    16 1   
    46    15    93 1   
    47    15    94 1   
    48    16    17 1   
    49    16    95 1   
    50    16    96 1   
    51    17    97 1   
    52    17    98 1   
    53    17   172 1   
    54    18    19 1   
    55    18   101 1   
    56    18   102 1   
    57    18   172 1   
    58    19    20 1   
    59    19    21 1   
    60    19   103 1   
    61    20   104 1   
    62    21    22 1   
    63    21    23 1   
    64    21   105 1   
    65    22   106 1   
    66    23    24 1   
    67    23    41 1   
    68    23   107 1   
    69    24    25 1   
    70    24   108 1   
    71    24   109 1   
    72    25    26 1   
    73    26   110 1   
    74    27   111 1   
    75    28   112 1   
    76    29   113 1   
    77    30   114 1   
    78    31    32 1   
    79    32    33 1   
    80    32   115 1   
    81    32   116 1   
    82    33    34 ar  
    83    33    40 ar  
    84    34    35 ar  
    85    34   117 1   
    86    35    36 1   
    87    35    37 ar  
    88    37    38 1   
    89    37    39 ar  
    90    39    40 ar  
    91    39   118 1   
    92    40   119 1   
    93    41    42 1   
    94    41   120 1   
    95    42    43 2   
    96    42    44 1   
    97    44    45 1   
    98    44   121 1   
    99    44   122 1   
   100    45    46 1   
   101    45   123 1   
   102    45   124 1   
   103    46    47 1   
   104    46   125 1   
   105    46   126 1   
   106    47    48 1   
   107    47   127 1   
   108    47   128 1   
   109    48    49 1   
   110    48   129 1   
   111    48   130 1   
   112    49    50 1   
   113    49   131 1   
   114    49   132 1   
   115    50    51 1   
   116    50   133 1   
   117    50   134 1   
   118    51    52 1   
   119    51   135 1   
   120    51   136 1   
   121    52    53 1   
   122    52   137 1   
   123    52   138 1   
   124    53    54 1   
   125    53   139 1   
   126    53   140 1   
   127    54    55 1   
   128    54   141 1   
   129    54   142 1   
   130    55    56 1   
   131    55   143 1   
   132    55   144 1   
   133    56    57 1   
   134    56   145 1   
   135    56   146 1   
   136    57    58 1   
   137    57   147 1   
   138    57   148 1   
   139    58    59 1   
   140    58   149 1   
   141    58   150 1   
   142    59    60 1   
   143    59   151 1   
   144    59   152 1   
   145    60    61 1   
   146    60   153 1   
   147    60   154 1   
   148    61    62 1   
   149    61   155 1   
   150    61   156 1   
   151    62    63 1   
   152    62   157 1   
   153    62   158 1   
   154    63    64 1   
   155    63   159 1   
   156    63   160 1   
   157    64    65 1   
   158    64   161 1   
   159    64   162 1   
   160    65    66 1   
   161    65   163 1   
   162    65   164 1   
   163    66    67 1   
   164    66   165 1   
   165    66   166 1   
   166    67    68 1   
   167    67   167 1   
   168    67   168 1   
   169    68   169 1   
   170    68   170 1   
   171    68   171 1   
   172    99   172 1   
   173   100   172 1   
@<TRIPOS>SUBSTRUCTURE
     1 JU4         1 TEMP              0 ****  ****    0 ROOT
