@<TRIPOS>MOLECULE
JU5
   92    97     1     0     0
SMALL
No Charge or Current Charge


@<TRIPOS>ATOM
      1 C11         -4.8810     0.4110    -0.2400 cc         1 JU5      -0.300000
      2 C12         -3.4990     0.7390     0.0490 cc         1 JU5       0.508200
      3 C14         -1.3550     1.3220    -0.2780 cd         1 JU5       0.284300
      4 C15         -0.1630     1.7070    -1.1390 c3         1 JU5       0.137500
      5 C17          0.9080    -0.5330    -1.1670 c6         1 JU5       0.160800
      6 C18          2.1730    -1.3420    -0.7920 c6         1 JU5      -0.078400
      7 C19          3.4280    -0.7730    -1.4960 c6         1 JU5      -0.064400
      8 C20          3.5720     0.7530    -1.2360 c6         1 JU5      -0.070700
      9 C21          3.9960     1.0970     0.2250 c3         1 JU5       0.102000
     10 C23          6.4270     1.5890     0.6650 c3         1 JU5       0.100000
     11 C24          6.7200     2.2960    -0.6850 c3         1 JU5       0.146800
     12 C26          8.2660     3.6430    -2.0460 c3         1 JU5       0.148100
     13 C27          7.8000     4.3240     0.2660 c3         1 JU5       0.148100
     14 C28          5.4240    -0.5620     1.4550 c          1 JU5       0.614700
     15 C30          6.7350    -1.3220     1.4990 ca         1 JU5      -0.140600
     16 C31          7.0560    -2.0960     2.6350 ca         1 JU5      -0.073000
     17 C32          8.2560    -2.8260     2.6910 ca         1 JU5      -0.105000
     18 C33          9.1470    -2.8050     1.6040 ca         1 JU5      -0.025000
     19 C34         10.3510    -3.5340     1.6560 ca         1 JU5      -0.101000
     20 C35         11.2330    -3.5150     0.5630 ca         1 JU5      -0.102000
     21 C36         10.9150    -2.7700    -0.5850 ca         1 JU5      -0.110000
     22 C37          9.7150    -2.0410    -0.6420 ca         1 JU5      -0.092000
     23 C38          8.8290    -2.0540     0.4530 ca         1 JU5      -0.043000
     24 C39          7.6260    -1.3250     0.4000 ca         1 JU5      -0.063000
     25 C40          2.2530     1.4760    -1.6190 c6         1 JU5       0.171800
     26 C41         -1.3330     1.1950     1.0880 cc         1 JU5      -0.239000
     27 N13         -2.5890     1.0650    -0.8610 nd         1 JU5      -0.619000
     28 N16          1.0800     0.9220    -0.8880 n3         1 JU5      -0.722600
     29 N22          5.3370     0.5730     0.6110 n          1 JU5      -0.410800
     30 N25          7.9080     3.1900    -0.6830 n3         1 JU5      -0.711600
     31 O29          4.4500    -0.9830     2.0660 o          1 JU5      -0.592100
     32 S42         -2.8880     0.7330     1.6990 ss         1 JU5      -0.055400
     33 H4          -0.4530     1.6180    -2.1950 h1         1 JU5       0.052700
     34 H5           0.0330     2.7720    -0.9560 h1         1 JU5       0.052700
     35 H6           0.6860    -0.6900    -2.2330 h1         1 JU5       0.033700
     36 H7           0.0580    -0.9390    -0.5990 h1         1 JU5       0.033700
     37 H8           2.3070    -1.3270     0.2970 hc         1 JU5       0.056700
     38 H9           2.0340    -2.3950    -1.0700 hc         1 JU5       0.056700
     39 H10          4.3270    -1.3120    -1.1690 hc         1 JU5       0.039700
     40 H11          3.3440    -0.9480    -2.5780 hc         1 JU5       0.039700
     41 H12          4.3670     1.1370    -1.8880 hc         1 JU5       0.042700
     42 H13          4.0000     2.1900     0.3280 h1         1 JU5       0.062200
     43 H14          3.2240     0.7340     0.9140 h1         1 JU5       0.062200
     44 H15          7.3560     1.1390     1.0300 h1         1 JU5       0.057700
     45 H16          6.1380     2.3470     1.4030 h1         1 JU5       0.057700
     46 H17          6.8660     1.5090    -1.4370 h1         1 JU5       0.036200
     47 H18          5.8320     2.8660    -0.9880 h1         1 JU5       0.036200
     48 H19          7.4680     4.2660    -2.4740 h1         1 JU5       0.031700
     49 H20          9.1920     4.2330    -2.0290 h1         1 JU5       0.031700
     50 H21          8.4260     2.7840    -2.7110 h1         1 JU5       0.031700
     51 H22          6.9400     4.9610     0.0180 h1         1 JU5       0.031700
     52 H23          7.6820     3.9690     1.2980 h1         1 JU5       0.031700
     53 H24          8.7060     4.9440     0.2320 h1         1 JU5       0.031700
     54 H25          6.3770    -2.1260     3.4850 ha         1 JU5       0.125000
     55 H26          8.4890    -3.4070     3.5800 ha         1 JU5       0.116000
     56 H27         10.6020    -4.1150     2.5410 ha         1 JU5       0.114000
     57 H28         12.1630    -4.0800     0.6050 ha         1 JU5       0.113000
     58 H29         11.5990    -2.7570    -1.4320 ha         1 JU5       0.113000
     59 H30          9.4770    -1.4660    -1.5340 ha         1 JU5       0.113000
     60 H31          7.3810    -0.7740    -0.5040 ha         1 JU5       0.118000
     61 H32          2.3630     2.5500    -1.4060 h1         1 JU5       0.031200
     62 H33          2.0970     1.3820    -2.7040 h1         1 JU5       0.031200
     63 H34         -0.4970     1.3350     1.7610 h4         1 JU5       0.175000
     64 C1          -5.7430     0.0840     0.7980 cd         1 JU5      -0.026200
     65 C2          -7.1340    -0.2480     0.5240 ca         1 JU5      -0.234800
     66 C3          -7.5840    -0.2310    -0.7960 ca         1 JU5       0.239100
     67 O2          -6.7240     0.0900    -1.8080 os         1 JU5      -0.347200
     68 C5          -5.4010     0.4160    -1.6410 c          1 JU5       0.690300
     69 O1          -4.7330     0.6860    -2.6280 o          1 JU5      -0.461000
     70 C4          -8.9120    -0.5440    -1.1020 ca         1 JU5      -0.251000
     71 C6          -9.8190    -0.8810    -0.0830 ca         1 JU5       0.411000
     72 C7          -9.3590    -0.8970     1.2480 ca         1 JU5      -0.228000
     73 C8          -8.0260    -0.5820     1.5560 ca         1 JU5       0.005000
     74 N1         -11.1680    -1.2000    -0.3900 nh         1 JU5      -0.817400
     75 C9         -11.9340    -2.1780     0.4200 c3         1 JU5       0.222800
     76 C10        -12.9250    -1.5280     1.4040 c3         1 JU5      -0.116600
     77 C13        -11.8710    -0.5680    -1.5340 c3         1 JU5       0.222800
     78 C16        -11.9890    -1.4780    -2.7700 c3         1 JU5      -0.116600
     79 H1          -5.4160     0.0660     1.8340 ha         1 JU5       0.191000
     80 H2          -9.2250    -0.5320    -2.1390 ha         1 JU5       0.139000
     81 H3          -7.6920    -0.5980     2.5920 ha         1 JU5       0.115000
     82 H35        -10.0350    -1.1430     2.0600 ha         1 JU5       0.119000
     83 H36        -12.4940    -2.8520    -0.2430 h1         1 JU5       0.051700
     84 H37        -11.2450    -2.8200     0.9850 h1         1 JU5       0.051700
     85 H38        -13.4270    -2.3010     1.9980 hc         1 JU5       0.044867
     86 H39        -12.4080    -0.8490     2.0900 hc         1 JU5       0.044867
     87 H40        -13.6930    -0.9600     0.8670 hc         1 JU5       0.044867
     88 H41        -12.8810    -0.2660    -1.2270 h1         1 JU5       0.051700
     89 H42        -11.3570     0.3590    -1.8240 h1         1 JU5       0.051700
     90 H43        -12.4790    -0.9390    -3.5890 hc         1 JU5       0.044867
     91 H44        -11.0000    -1.8010    -3.1150 hc         1 JU5       0.044867
     92 H45        -12.5850    -2.3690    -2.5440 hc         1 JU5       0.044867
@<TRIPOS>BOND
     1     1     2 1   
     2     1    64 2   
     3     1    68 1   
     4     2    27 2   
     5     2    32 1   
     6     3     4 1   
     7     3    26 2   
     8     3    27 1   
     9     4    28 1   
    10     4    33 1   
    11     4    34 1   
    12     5     6 1   
    13     5    28 1   
    14     5    35 1   
    15     5    36 1   
    16     6     7 1   
    17     6    37 1   
    18     6    38 1   
    19     7     8 1   
    20     7    39 1   
    21     7    40 1   
    22     8     9 1   
    23     8    25 1   
    24     8    41 1   
    25     9    29 1   
    26     9    42 1   
    27     9    43 1   
    28    10    11 1   
    29    10    29 1   
    30    10    44 1   
    31    10    45 1   
    32    11    30 1   
    33    11    46 1   
    34    11    47 1   
    35    12    30 1   
    36    12    48 1   
    37    12    49 1   
    38    12    50 1   
    39    13    30 1   
    40    13    51 1   
    41    13    52 1   
    42    13    53 1   
    43    14    15 1   
    44    14    29 1   
    45    14    31 2   
    46    15    16 ar  
    47    15    24 ar  
    48    16    17 ar  
    49    16    54 1   
    50    17    18 ar  
    51    17    55 1   
    52    18    19 ar  
    53    18    23 ar  
    54    19    20 ar  
    55    19    56 1   
    56    20    21 ar  
    57    20    57 1   
    58    21    22 ar  
    59    21    58 1   
    60    22    23 ar  
    61    22    59 1   
    62    23    24 ar  
    63    24    60 1   
    64    25    28 1   
    65    25    61 1   
    66    25    62 1   
    67    26    32 1   
    68    26    63 1   
    69    64    65 1   
    70    64    79 1   
    71    65    66 ar  
    72    65    73 ar  
    73    66    67 1   
    74    66    70 ar  
    75    67    68 1   
    76    68    69 2   
    77    70    71 ar  
    78    70    80 1   
    79    71    72 ar  
    80    71    74 1   
    81    72    73 ar  
    82    72    82 1   
    83    73    81 1   
    84    74    75 1   
    85    74    77 1   
    86    75    76 1   
    87    75    83 1   
    88    75    84 1   
    89    76    85 1   
    90    76    86 1   
    91    76    87 1   
    92    77    78 1   
    93    77    88 1   
    94    77    89 1   
    95    78    90 1   
    96    78    91 1   
    97    78    92 1   
@<TRIPOS>SUBSTRUCTURE
     1 JU5         1 TEMP              0 ****  ****    0 ROOT
