@<TRIPOS>MOLECULE
JU5
   92    97     1     0     0
SMALL
abcg2


@<TRIPOS>ATOM
      1 C11         -4.9090     0.2140     0.0070 cc         1 JU5      -0.300000
      2 C12         -3.4560     0.2300     0.1270 cc         1 JU5       0.508200
      3 C14         -1.3320     0.4640    -0.4190 cd         1 JU5       0.284300
      4 C15         -0.2490     0.8670    -1.3730 c3         1 JU5       0.137500
      5 C17          1.0290    -1.1650    -1.4250 c6         1 JU5       0.160800
      6 C18          2.3240    -1.8270    -0.9840 c6         1 JU5      -0.078400
      7 C19          3.5290    -1.1030    -1.5690 c6         1 JU5      -0.064400
      8 C20          3.4720     0.3970    -1.2800 c6         1 JU5      -0.070700
      9 C21          3.7500     0.7730     0.1820 c3         1 JU5       0.102000
     10 C23          6.0580     1.6000     0.5670 c3         1 JU5       0.100000
     11 C24          6.4550     2.0190    -0.8440 c3         1 JU5       0.146800
     12 C26          8.1260     3.0980    -2.1590 c3         1 JU5       0.148100
     13 C27          7.1530     4.2630    -0.3250 c3         1 JU5       0.148100
     14 C28          5.3790    -0.6600     1.2700 c          1 JU5       0.614700
     15 C30          6.8130    -1.0140     1.5180 ca         1 JU5      -0.140600
     16 C31          7.2180    -1.3360     2.8340 ca         1 JU5      -0.073000
     17 C32          8.4950    -1.7530     3.0810 ca         1 JU5      -0.105000
     18 C33          9.4260    -1.9080     2.0260 ca         1 JU5      -0.025000
     19 C34         10.7490    -2.3540     2.2490 ca         1 JU5      -0.101000
     20 C35         11.6180    -2.5050     1.2030 ca         1 JU5      -0.102000
     21 C36         11.2060    -2.2170    -0.1150 ca         1 JU5      -0.110000
     22 C37          9.9320    -1.7820    -0.3600 ca         1 JU5      -0.092000
     23 C38          9.0130    -1.6150     0.7020 ca         1 JU5      -0.043000
     24 C39          7.6940    -1.1590     0.4780 ca         1 JU5      -0.063000
     25 C40          2.1160     0.9420    -1.7190 c6         1 JU5       0.171800
     26 C41         -1.1520    -0.0160     0.8420 cc         1 JU5      -0.239000
     27 N13         -2.6330     0.5980    -0.8050 nd         1 JU5      -0.619000
     28 N16          1.0190     0.2460    -1.0700 n3         1 JU5      -0.722600
     29 N22          5.1150     0.4890     0.6080 n          1 JU5      -0.410800
     30 N25          7.5520     2.9660    -0.8360 n3         1 JU5      -0.711600
     31 O29          4.5140    -1.4410     1.6450 o          1 JU5      -0.592100
     32 S42         -2.6710    -0.2990     1.5780 ss         1 JU5      -0.055400
     33 H4          -0.5920     0.6560    -2.4000 h1         1 JU5       0.052700
     34 H5          -0.1280     1.9530    -1.3140 h1         1 JU5       0.052700
     35 H6           0.9000    -1.2920    -2.5150 h1         1 JU5       0.033700
     36 H7           0.1800    -1.6600    -0.9480 h1         1 JU5       0.033700
     37 H8           2.3770    -1.8290     0.1060 hc         1 JU5       0.056700
     38 H9           2.3190    -2.8730    -1.3010 hc         1 JU5       0.056700
     39 H10          4.4630    -1.5420    -1.2110 hc         1 JU5       0.039700
     40 H11          3.5340    -1.2360    -2.6560 hc         1 JU5       0.039700
     41 H12          4.2230     0.8930    -1.9010 hc         1 JU5       0.042700
     42 H13          3.5880     1.8480     0.3020 h1         1 JU5       0.062200
     43 H14          3.0470     0.2790     0.8500 h1         1 JU5       0.062200
     44 H15          6.9600     1.3300     1.1120 h1         1 JU5       0.057700
     45 H16          5.6050     2.4370     1.1050 h1         1 JU5       0.057700
     46 H17          6.7760     1.1280    -1.3890 h1         1 JU5       0.036200
     47 H18          5.5820     2.4220    -1.3850 h1         1 JU5       0.036200
     48 H19          7.4190     3.4980    -2.9020 h1         1 JU5       0.031700
     49 H20          8.9850     3.7690    -2.1270 h1         1 JU5       0.031700
     50 H21          8.4750     2.1290    -2.5180 h1         1 JU5       0.031700
     51 H22          6.3380     4.7190    -0.9080 h1         1 JU5       0.031700
     52 H23          6.8230     4.1930     0.7110 h1         1 JU5       0.031700
     53 H24          8.0030     4.9450    -0.3490 h1         1 JU5       0.031700
     54 H25          6.5140    -1.2340     3.6490 ha         1 JU5       0.125000
     55 H26          8.8070    -1.9780     4.0940 ha         1 JU5       0.116000
     56 H27         11.0660    -2.5760     3.2610 ha         1 JU5       0.114000
     57 H28         12.6290    -2.8480     1.3840 ha         1 JU5       0.113000
     58 H29         11.9030    -2.3420    -0.9330 ha         1 JU5       0.113000
     59 H30          9.6130    -1.5610    -1.3720 ha         1 JU5       0.113000
     60 H31          7.3890    -0.9400    -0.5390 ha         1 JU5       0.118000
     61 H32          2.0470     2.0070    -1.4780 h1         1 JU5       0.031200
     62 H33          2.0460     0.8620    -2.8180 h1         1 JU5       0.031200
     63 H34         -0.2230    -0.2130     1.3510 h4         1 JU5       0.175000
     64 C1          -5.6690    -0.7810     0.5450 cd         1 JU5      -0.026200
     65 C2          -7.0730    -0.8050     0.3930 ca         1 JU5      -0.234800
     66 C3          -7.6730     0.2230    -0.3410 ca         1 JU5       0.239100
     67 O2          -6.9100     1.2170    -0.8500 os         1 JU5      -0.347200
     68 C5          -5.5570     1.2940    -0.7210 c          1 JU5       0.690300
     69 O1          -5.0230     2.2570    -1.2080 o          1 JU5      -0.461000
     70 C4          -9.0250     0.2730    -0.5900 ca         1 JU5      -0.251000
     71 C6          -9.8700    -0.7440    -0.0980 ca         1 JU5       0.411000
     72 C7          -9.2690    -1.7850     0.6660 ca         1 JU5      -0.228000
     73 C8          -7.9190    -1.8090     0.8920 ca         1 JU5       0.005000
     74 N1         -11.1980    -0.7310    -0.3460 nh         1 JU5      -0.817400
     75 C9         -12.0790    -1.8100     0.0730 c3         1 JU5       0.222800
     76 C10        -12.6280    -1.6150     1.4790 c3         1 JU5      -0.116600
     77 C13        -11.8320     0.3630    -1.0620 c3         1 JU5       0.222800
     78 C16        -11.7720     0.2010    -2.5750 c3         1 JU5      -0.116600
     79 H1          -5.1940    -1.5960     1.0810 ha         1 JU5       0.191000
     80 H2          -9.4050     1.0970    -1.1760 ha         1 JU5       0.139000
     81 H3          -7.4910    -2.6190     1.4690 ha         1 JU5       0.115000
     82 H35         -9.8690    -2.5770     1.0890 ha         1 JU5       0.119000
     83 H36        -12.9010    -1.8550    -0.6420 h1         1 JU5       0.051700
     84 H37        -11.5650    -2.7680    -0.0120 h1         1 JU5       0.051700
     85 H38        -13.3130    -2.4240     1.7320 hc         1 JU5       0.044867
     86 H39        -11.8320    -1.6010     2.2230 hc         1 JU5       0.044867
     87 H40        -13.1780    -0.6750     1.5540 hc         1 JU5       0.044867
     88 H41        -12.8730     0.4060    -0.7380 h1         1 JU5       0.051700
     89 H42        -11.3950     1.3140    -0.7570 h1         1 JU5       0.051700
     90 H43        -12.2760     1.0340    -3.0640 hc         1 JU5       0.044867
     91 H44        -10.7440     0.1720    -2.9360 hc         1 JU5       0.044867
     92 H45        -12.2650    -0.7200    -2.8880 hc         1 JU5       0.044867
@<TRIPOS>BOND
     1     1     2 1   
     2     1    64 2   
     3     1    68 1   
     4     2    27 2   
     5     2    32 1   
     6     3     4 1   
     7     3    26 2   
     8     3    27 1   
     9     4    28 1   
    10     4    33 1   
    11     4    34 1   
    12     5     6 1   
    13     5    28 1   
    14     5    35 1   
    15     5    36 1   
    16     6     7 1   
    17     6    37 1   
    18     6    38 1   
    19     7     8 1   
    20     7    39 1   
    21     7    40 1   
    22     8     9 1   
    23     8    25 1   
    24     8    41 1   
    25     9    29 1   
    26     9    42 1   
    27     9    43 1   
    28    10    11 1   
    29    10    29 1   
    30    10    44 1   
    31    10    45 1   
    32    11    30 1   
    33    11    46 1   
    34    11    47 1   
    35    12    30 1   
    36    12    48 1   
    37    12    49 1   
    38    12    50 1   
    39    13    30 1   
    40    13    51 1   
    41    13    52 1   
    42    13    53 1   
    43    14    15 1   
    44    14    29 1   
    45    14    31 2   
    46    15    16 ar  
    47    15    24 ar  
    48    16    17 ar  
    49    16    54 1   
    50    17    18 ar  
    51    17    55 1   
    52    18    19 ar  
    53    18    23 ar  
    54    19    20 ar  
    55    19    56 1   
    56    20    21 ar  
    57    20    57 1   
    58    21    22 ar  
    59    21    58 1   
    60    22    23 ar  
    61    22    59 1   
    62    23    24 ar  
    63    24    60 1   
    64    25    28 1   
    65    25    61 1   
    66    25    62 1   
    67    26    32 1   
    68    26    63 1   
    69    64    65 1   
    70    64    79 1   
    71    65    66 ar  
    72    65    73 ar  
    73    66    67 1   
    74    66    70 ar  
    75    67    68 1   
    76    68    69 2   
    77    70    71 ar  
    78    70    80 1   
    79    71    72 ar  
    80    71    74 1   
    81    72    73 ar  
    82    72    82 1   
    83    73    81 1   
    84    74    75 1   
    85    74    77 1   
    86    75    76 1   
    87    75    83 1   
    88    75    84 1   
    89    76    85 1   
    90    76    86 1   
    91    76    87 1   
    92    77    78 1   
    93    77    88 1   
    94    77    89 1   
    95    78    90 1   
    96    78    91 1   
    97    78    92 1   
@<TRIPOS>SUBSTRUCTURE
     1 JU5         1 TEMP              0 ****  ****    0 ROOT
