@<TRIPOS>MOLECULE
JU7
   58    59     1     0     0
SMALL
bcc


@<TRIPOS>ATOM
      1 C02         -4.3220     1.4680    -0.2200 c6         1 JU7       0.091100
      2 C03         -3.3180     0.3740     0.1320 c6         1 JU7       0.319900
      3 C05         -0.9760     0.0440     0.1240 c3         1 JU7       0.143400
      4 C06          0.2780     0.6580    -0.4610 c3         1 JU7      -0.081400
      5 C07          1.5440     0.0500     0.1300 c3         1 JU7      -0.073400
      6 C08          2.8100     0.6840    -0.4320 c3         1 JU7      -0.075400
      7 C09          4.0920     0.1120     0.1590 c3         1 JU7      -0.074400
      8 C10          5.3400     0.8100    -0.3690 c3         1 JU7      -0.072400
      9 C11          6.6560     0.3160     0.2290 c6         1 JU7      -0.058700
     10 C12          7.8080     1.2450    -0.1570 c6         1 JU7      -0.070900
     11 C13          9.1440     0.7820     0.4160 c6         1 JU7      -0.072900
     12 C14          9.4570    -0.6520     0.0050 c6         1 JU7      -0.074400
     13 C15          8.3200    -1.5920     0.3910 c6         1 JU7      -0.072900
     14 C16          6.9850    -1.1210    -0.1790 c6         1 JU7      -0.070900
     15 C18         -4.9630    -1.3080     0.1860 c6         1 JU7       0.158100
     16 C19         -5.2590    -2.6840    -0.3720 c3         1 JU7       0.148400
     17 C21         -6.0820    -0.3140    -0.1340 c6         1 JU7       0.119100
     18 C23         -5.6840     1.0810     0.3360 c6         1 JU7       0.115100
     19 O01         -3.9630     2.7040     0.3460 oh         1 JU7      -0.602800
     20 O04         -2.1070     0.6900    -0.4420 os         1 JU7      -0.410600
     21 O17         -3.7540    -0.8570    -0.3850 os         1 JU7      -0.420600
     22 O20         -4.2440    -3.5690     0.0390 oh         1 JU7      -0.589800
     23 O22         -7.2540    -0.7520     0.5070 oh         1 JU7      -0.596800
     24 O24         -6.6990     1.9680    -0.0720 oh         1 JU7      -0.603800
     25 H1          -4.3870     1.5340    -1.3170 h1         1 JU7       0.067700
     26 H2          -3.2250     0.3020     1.2330 h2         1 JU7       0.033700
     27 H3          -1.0030    -1.0320    -0.0790 h1         1 JU7       0.035700
     28 H4          -0.9850     0.1690     1.2150 h1         1 JU7       0.035700
     29 H5           0.2800     0.5260    -1.5470 hc         1 JU7       0.050700
     30 H6           0.2710     1.7360    -0.2740 hc         1 JU7       0.050700
     31 H7           1.5330     0.1700     1.2190 hc         1 JU7       0.039700
     32 H8           1.5600    -1.0290    -0.0560 hc         1 JU7       0.039700
     33 H9           2.8260     0.5620    -1.5200 hc         1 JU7       0.038200
     34 H10          2.7800     1.7640    -0.2510 hc         1 JU7       0.038200
     35 H11          4.0630     0.2070     1.2510 hc         1 JU7       0.038200
     36 H12          4.1390    -0.9610    -0.0490 hc         1 JU7       0.038200
     37 H13          5.3800     0.7090    -1.4600 hc         1 JU7       0.037200
     38 H14          5.2470     1.8840    -0.1710 hc         1 JU7       0.037200
     39 H15          6.5590     0.3420     1.3240 hc         1 JU7       0.044700
     40 H16          7.8780     1.2870    -1.2510 hc         1 JU7       0.037450
     41 H17          7.5890     2.2640     0.1760 hc         1 JU7       0.037450
     42 H18          9.9450     1.4530     0.0950 hc         1 JU7       0.037450
     43 H19          9.1060     0.8440     1.5100 hc         1 JU7       0.037450
     44 H20          9.6080    -0.6940    -1.0800 hc         1 JU7       0.037200
     45 H21         10.3940    -0.9830     0.4610 hc         1 JU7       0.037200
     46 H22          8.5340    -2.6080     0.0480 hc         1 JU7       0.037450
     47 H23          8.2500    -1.6440     1.4830 hc         1 JU7       0.037450
     48 H24          6.1890    -1.8000     0.1380 hc         1 JU7       0.037450
     49 H25          7.0210    -1.1760    -1.2740 hc         1 JU7       0.037450
     50 H26         -4.8630    -1.3800     1.2820 h1         1 JU7       0.058700
     51 H27         -6.2420    -3.0010    -0.0100 h1         1 JU7       0.037200
     52 H28         -5.3240    -2.6160    -1.4670 h1         1 JU7       0.037200
     53 H29         -6.2160    -0.2870    -1.2270 h1         1 JU7       0.056700
     54 H30         -5.6080     1.0550     1.4360 h1         1 JU7       0.052700
     55 H31         -3.1780     3.0290    -0.1060 ho         1 JU7       0.425000
     56 H32         -4.4830    -4.4510    -0.2600 ho         1 JU7       0.405000
     57 H33         -7.9530    -0.1150     0.3230 ho         1 JU7       0.426000
     58 H34         -6.5580     2.8160     0.3600 ho         1 JU7       0.427000
@<TRIPOS>BOND
     1     1     2 1   
     2     1    18 1   
     3     1    19 1   
     4     1    25 1   
     5     2    20 1   
     6     2    21 1   
     7     2    26 1   
     8     3     4 1   
     9     3    20 1   
    10     3    27 1   
    11     3    28 1   
    12     4     5 1   
    13     4    29 1   
    14     4    30 1   
    15     5     6 1   
    16     5    31 1   
    17     5    32 1   
    18     6     7 1   
    19     6    33 1   
    20     6    34 1   
    21     7     8 1   
    22     7    35 1   
    23     7    36 1   
    24     8     9 1   
    25     8    37 1   
    26     8    38 1   
    27     9    10 1   
    28     9    14 1   
    29     9    39 1   
    30    10    11 1   
    31    10    40 1   
    32    10    41 1   
    33    11    12 1   
    34    11    42 1   
    35    11    43 1   
    36    12    13 1   
    37    12    44 1   
    38    12    45 1   
    39    13    14 1   
    40    13    46 1   
    41    13    47 1   
    42    14    48 1   
    43    14    49 1   
    44    15    16 1   
    45    15    17 1   
    46    15    21 1   
    47    15    50 1   
    48    16    22 1   
    49    16    51 1   
    50    16    52 1   
    51    17    18 1   
    52    17    23 1   
    53    17    53 1   
    54    18    24 1   
    55    18    54 1   
    56    19    55 1   
    57    22    56 1   
    58    23    57 1   
    59    24    58 1   
@<TRIPOS>SUBSTRUCTURE
     1 JU7         1 TEMP              0 ****  ****    0 ROOT
