@<TRIPOS>MOLECULE
JU7
   58    59     1     0     0
SMALL
No Charge or Current Charge


@<TRIPOS>ATOM
      1 C02         -4.5590     1.5150    -0.2590 c6         1 JU7       0.114300
      2 C03         -3.4500     0.5470     0.2690 c6         1 JU7       0.366300
      3 C05         -1.0300     0.2710     0.3570 c3         1 JU7       0.166600
      4 C06          0.2470     0.9350    -0.1930 c3         1 JU7      -0.081400
      5 C07          1.5410     0.2430     0.2910 c3         1 JU7      -0.073400
      6 C08          2.8230     0.9070    -0.2590 c3         1 JU7      -0.075400
      7 C09          4.1160     0.2150     0.2250 c3         1 JU7      -0.074400
      8 C10          5.4000     0.8780    -0.3300 c3         1 JU7      -0.072400
      9 C11          6.7440     0.2960     0.2070 c6         1 JU7      -0.058700
     10 C12          7.9480     1.1470    -0.2910 c6         1 JU7      -0.070900
     11 C13          9.2960     0.6000     0.2390 c6         1 JU7      -0.072900
     12 C14          9.4880    -0.8850    -0.1500 c6         1 JU7      -0.074400
     13 C15          8.3020    -1.7450     0.3480 c6         1 JU7      -0.072900
     14 C16          6.9500    -1.2000    -0.1760 c6         1 JU7      -0.070900
     15 C18         -4.9400    -1.3640     0.2060 c6         1 JU7       0.181300
     16 C19         -5.0220    -2.8330    -0.3280 c3         1 JU7       0.171600
     17 C21         -6.1420    -0.4860    -0.2760 c6         1 JU7       0.142300
     18 C23         -5.9420     0.9820     0.2080 c6         1 JU7       0.138300
     19 O01         -4.3600     2.8810     0.1810 oh         1 JU7      -0.725000
     20 O04         -2.1550     1.0000    -0.1590 os         1 JU7      -0.457000
     21 O17         -3.6890    -0.7780    -0.2460 os         1 JU7      -0.467000
     22 O20         -3.9000    -3.6520     0.0670 oh         1 JU7      -0.712000
     23 O22         -7.4090    -0.9840     0.1980 oh         1 JU7      -0.719000
     24 O24         -6.9950     1.8300    -0.2830 oh         1 JU7      -0.666000
     25 H1          -4.5300     1.4740    -1.3590 h1         1 JU7       0.067700
     26 H2          -3.4780     0.5240     1.3690 h2         1 JU7       0.033700
     27 H3          -1.0620    -0.7790     0.0380 h1         1 JU7       0.035700
     28 H4          -1.0170     0.3010     1.4540 h1         1 JU7       0.035700
     29 H5           0.2150     0.9170    -1.2890 hc         1 JU7       0.050700
     30 H6           0.2630     1.9880     0.1140 hc         1 JU7       0.050700
     31 H7           1.5690     0.2590     1.3870 hc         1 JU7       0.039700
     32 H8           1.5210    -0.8100    -0.0150 hc         1 JU7       0.039700
     33 H9           2.7950     0.8910    -1.3560 hc         1 JU7       0.038200
     34 H10          2.8420     1.9610     0.0460 hc         1 JU7       0.038200
     35 H11          4.1470     0.2340     1.3210 hc         1 JU7       0.038200
     36 H12          4.0840    -0.8380    -0.0790 hc         1 JU7       0.038200
     37 H13          5.3820     0.8130    -1.4250 hc         1 JU7       0.037200
     38 H14          5.3560     1.9480    -0.0910 hc         1 JU7       0.037200
     39 H15          6.7000     0.3720     1.3030 hc         1 JU7       0.044700
     40 H16          7.9650     1.1610    -1.3900 hc         1 JU7       0.037450
     41 H17          7.8280     2.1900     0.0310 hc         1 JU7       0.037450
     42 H18         10.1250     1.2000    -0.1620 hc         1 JU7       0.037450
     43 H19          9.3350     0.7050     1.3320 hc         1 JU7       0.037450
     44 H20          9.5790    -0.9740    -1.2410 hc         1 JU7       0.037200
     45 H21         10.4280    -1.2640     0.2750 hc         1 JU7       0.037200
     46 H22          8.4350    -2.7860     0.0230 hc         1 JU7       0.037450
     47 H23          8.2930    -1.7610     1.4470 hc         1 JU7       0.037450
     48 H24          6.1400    -1.8170     0.2350 hc         1 JU7       0.037450
     49 H25          6.9060    -1.3150    -1.2690 hc         1 JU7       0.037450
     50 H26         -4.9360    -1.4010     1.3060 h1         1 JU7       0.058700
     51 H27         -5.9560    -3.2800     0.0400 h1         1 JU7       0.037200
     52 H28         -5.0910    -2.7930    -1.4230 h1         1 JU7       0.037200
     53 H29         -6.1360    -0.4850    -1.3770 h1         1 JU7       0.056700
     54 H30         -5.9500     0.9850     1.3090 h1         1 JU7       0.052700
     55 H31         -3.4040     3.0800     0.0260 ho         1 JU7       0.524000
     56 H32         -4.0140    -4.5270    -0.3710 ho         1 JU7       0.504000
     57 H33         -8.0320    -0.2230     0.0980 ho         1 JU7       0.525000
     58 H34         -6.6280     2.7430    -0.2200 ho         1 JU7       0.466000
@<TRIPOS>BOND
     1     1     2 1   
     2     1    18 1   
     3     1    19 1   
     4     1    25 1   
     5     2    20 1   
     6     2    21 1   
     7     2    26 1   
     8     3     4 1   
     9     3    20 1   
    10     3    27 1   
    11     3    28 1   
    12     4     5 1   
    13     4    29 1   
    14     4    30 1   
    15     5     6 1   
    16     5    31 1   
    17     5    32 1   
    18     6     7 1   
    19     6    33 1   
    20     6    34 1   
    21     7     8 1   
    22     7    35 1   
    23     7    36 1   
    24     8     9 1   
    25     8    37 1   
    26     8    38 1   
    27     9    10 1   
    28     9    14 1   
    29     9    39 1   
    30    10    11 1   
    31    10    40 1   
    32    10    41 1   
    33    11    12 1   
    34    11    42 1   
    35    11    43 1   
    36    12    13 1   
    37    12    44 1   
    38    12    45 1   
    39    13    14 1   
    40    13    46 1   
    41    13    47 1   
    42    14    48 1   
    43    14    49 1   
    44    15    16 1   
    45    15    17 1   
    46    15    21 1   
    47    15    50 1   
    48    16    22 1   
    49    16    51 1   
    50    16    52 1   
    51    17    18 1   
    52    17    23 1   
    53    17    53 1   
    54    18    24 1   
    55    18    54 1   
    56    19    55 1   
    57    22    56 1   
    58    23    57 1   
    59    24    58 1   
@<TRIPOS>SUBSTRUCTURE
     1 JU7         1 TEMP              0 ****  ****    0 ROOT
