@<TRIPOS>MOLECULE
JU8
   29    31     1     0     0
SMALL
No Charge or Current Charge


@<TRIPOS>ATOM
      1 C4          22.4010   -18.8860     4.3310 ca         1 JU8       0.373900
      2 C5          21.0390   -19.1310     4.0220 ca         1 JU8      -0.175800
      3 C6          20.7810   -20.3470     3.3520 ca         1 JU8       0.132900
      4 N1          21.7590   -21.2130     3.0190 nb         1 JU8      -0.211000
      5 N3          23.3830   -19.7350     3.9970 nb         1 JU8      -0.266000
      6 NAG         18.6930   -16.6920     5.4370 na         1 JU8      -0.084700
      7 CAH         19.9240   -17.3680     5.5050 cc         1 JU8      -0.151100
      8 CAE         17.9850   -17.0810     4.3110 ca         1 JU8      -0.051200
      9 CAD         16.7440   -16.6210     3.8410 ca         1 JU8      -0.126000
     10 CAC         16.2570   -17.1490     2.6280 ca         1 JU8      -0.092000
     11 CAB         17.0170   -18.1000     1.9080 ca         1 JU8      -0.137000
     12 CAA         18.2640   -18.5430     2.4010 ca         1 JU8      -0.062000
     13 CAF         18.7120   -18.0240     3.6290 ca         1 JU8      -0.087800
     14 CAI         19.9250   -18.2300     4.4120 cd         1 JU8      -0.084400
     15 C2          23.0140   -20.8610     3.3570 ca         1 JU8       0.153900
     16 NAQ         22.8500   -17.7370     4.9050 nv         1 JU8      -1.064900
     17 H1          19.7680   -20.6740     3.1270 h4         1 JU8       0.024100
     18 H2          18.8890   -15.5480     7.2020 h1         1 JU8       0.050033
     19 H3          18.0320   -14.7340     5.8600 h1         1 JU8       0.050033
     20 H4          17.2170   -16.0290     6.7900 h1         1 JU8       0.050033
     21 H5          20.6360   -17.2160     6.3090 h4         1 JU8       0.217000
     22 H6          16.1730   -15.8730     4.3860 ha         1 JU8       0.114000
     23 H7          15.3000   -16.8120     2.2360 ha         1 JU8       0.111000
     24 H8          16.6430   -18.4870     0.9630 ha         1 JU8       0.113000
     25 H9          18.8540   -19.2450     1.8210 ha         1 JU8       0.119000
     26 H10         23.8080   -21.5550     3.0860 h5         1 JU8       0.044100
     27 H11         23.8500   -17.5570     4.8720 hn         1 JU8       0.488000
     28 H12         22.2510   -16.9180     4.8440 hn         1 JU8       0.488000
     29 CAP         18.1760   -15.6890     6.3810 c3         1 JU8       0.063900
@<TRIPOS>BOND
     1     1     2 ar  
     2     1     5 ar  
     3     1    16 1   
     4     2     3 ar  
     5     2    14 1   
     6     3     4 ar  
     7     3    17 1   
     8     4    15 ar  
     9     5    15 ar  
    10     6     7 1   
    11     6     8 1   
    12     6    29 1   
    13     7    14 2   
    14     7    21 1   
    15     8     9 ar  
    16     8    13 ar  
    17     9    10 ar  
    18     9    22 1   
    19    10    11 ar  
    20    10    23 1   
    21    11    12 ar  
    22    11    24 1   
    23    12    13 ar  
    24    12    25 1   
    25    13    14 1   
    26    15    26 1   
    27    16    27 1   
    28    16    28 1   
    29    18    29 1   
    30    19    29 1   
    31    20    29 1   
@<TRIPOS>SUBSTRUCTURE
     1 JU8         1 TEMP              0 ****  ****    0 ROOT
