@<TRIPOS>MOLECULE
JU8
   29    31     1     0     0
SMALL
bcc


@<TRIPOS>ATOM
      1 C4          22.4040   -18.8120     4.1700 ca         1 JU8       0.702200
      2 C5          21.0320   -19.1620     4.0700 ca         1 JU8      -0.306400
      3 C6          20.7860   -20.4470     3.6340 ca         1 JU8       0.461200
      4 N1          21.7380   -21.3320     3.3240 nb         1 JU8      -0.737000
      5 N3          23.3570   -19.6970     3.8700 nb         1 JU8      -0.792000
      6 NAG         18.6410   -16.7520     5.4580 na         1 JU8      -0.055400
      7 CAH         19.8060   -17.4560     5.5030 cc         1 JU8      -0.101100
      8 CAE         17.9890   -17.0570     4.2960 ca         1 JU8      -0.051200
      9 CAD         16.7730   -16.5810     3.8070 ca         1 JU8      -0.144000
     10 CAC         16.3510   -17.0580     2.5810 ca         1 JU8      -0.110000
     11 CAB         17.1210   -17.9810     1.8550 ca         1 JU8      -0.155000
     12 CAA         18.3250   -18.4490     2.3440 ca         1 JU8      -0.080000
     13 CAF         18.7740   -17.9900     3.5870 ca         1 JU8      -0.087800
     14 CAI         19.9440   -18.2360     4.3820 cd         1 JU8      -0.084400
     15 C2          22.9750   -20.8970     3.4690 ca         1 JU8       0.679900
     16 NAQ         22.8020   -17.5980     4.5900 nv         1 JU8      -0.954500
     17 H1          19.7600   -20.7900     3.5380 h4         1 JU8       0.024100
     18 H2          18.9080   -15.7530     7.2530 h1         1 JU8       0.050033
     19 H3          18.0400   -14.8280     6.0250 h1         1 JU8       0.050033
     20 H4          17.2260   -16.1480     6.8820 h1         1 JU8       0.050033
     21 H5          20.4600   -17.3660     6.3570 h4         1 JU8       0.167000
     22 H6          16.1800   -15.8650     4.3620 ha         1 JU8       0.132000
     23 H7          15.4110   -16.7110     2.1720 ha         1 JU8       0.129000
     24 H8          16.7630   -18.3290     0.8940 ha         1 JU8       0.131000
     25 H9          18.9090   -19.1570     1.7690 ha         1 JU8       0.137000
     26 H10         23.7710   -21.5950     3.2300 h5         1 JU8       0.044100
     27 H11         23.7720   -17.3570     4.4670 hn         1 JU8       0.432800
     28 H12         22.1500   -16.8320     4.5880 hn         1 JU8       0.432800
     29 CAP         18.1740   -15.8200     6.4550 c3         1 JU8       0.034600
@<TRIPOS>BOND
     1     1     2 ar  
     2     1     5 ar  
     3     1    16 1   
     4     2     3 ar  
     5     2    14 1   
     6     3     4 ar  
     7     3    17 1   
     8     4    15 ar  
     9     5    15 ar  
    10     6     7 1   
    11     6     8 1   
    12     6    29 1   
    13     7    14 2   
    14     7    21 1   
    15     8     9 ar  
    16     8    13 ar  
    17     9    10 ar  
    18     9    22 1   
    19    10    11 ar  
    20    10    23 1   
    21    11    12 ar  
    22    11    24 1   
    23    12    13 ar  
    24    12    25 1   
    25    13    14 1   
    26    15    26 1   
    27    16    27 1   
    28    16    28 1   
    29    18    29 1   
    30    19    29 1   
    31    20    29 1   
@<TRIPOS>SUBSTRUCTURE
     1 JU8         1 TEMP              0 ****  ****    0 ROOT
