@<TRIPOS>MOLECULE
JU9
   37    39     1     0     0
SMALL
No Charge or Current Charge


@<TRIPOS>ATOM
      1 N1         -16.3960    -8.6920   -54.2050 na         1 JU9      -0.085000
      2 N3         -16.1020    -5.5710   -55.8800 nc         1 JU9      -0.511100
      3 C4         -17.5380    -7.2290   -60.2240 ca         1 JU9      -0.101000
      4 C5         -18.0970    -6.7200   -59.0330 ca         1 JU9       0.043200
      5 C6         -18.3830    -5.2580   -58.9190 ce         1 JU9      -0.296200
      6 C7         -18.7360    -4.4520   -59.9550 c2         1 JU9      -0.132600
      7 C8         -18.3650    -7.6090   -57.9630 ca         1 JU9      -0.119000
      8 C10        -17.6640    -8.6450   -54.8160 cd         1 JU9      -0.118000
      9 C13        -14.8730    -5.1760   -55.5380 cd         1 JU9       0.449800
     10 C15        -18.0940    -8.9870   -58.1110 ca         1 JU9      -0.185000
     11 C1         -17.4690   -11.8040   -58.4660 c3         1 JU9       0.162900
     12 C2         -17.5330    -9.4840   -59.3050 ca         1 JU9       0.062100
     13 C3         -17.2560    -8.5980   -60.3560 ca         1 JU9      -0.141000
     14 P1         -19.0820    -2.6170   -59.7010 p5         1 JU9       1.125100
     15 O2         -18.9430    -2.2370   -58.2660 o          1 JU9      -0.921833
     16 O3         -20.4390    -2.3680   -60.2670 o          1 JU9      -0.921833
     17 O4         -18.1420    -1.8950   -60.6040 o          1 JU9      -0.921833
     18 C9         -17.6770    -7.4720   -55.5220 cc         1 JU9      -0.194000
     19 C11        -15.6700    -7.5330   -54.5450 cd         1 JU9      -0.315600
     20 C12        -14.3250    -7.0980   -54.1710 c          1 JU9       0.598600
     21 O5         -13.5580    -7.7180   -53.4520 o          1 JU9      -0.595000
     22 N2         -14.0220    -5.8940   -54.7280 ns         1 JU9      -0.426400
     23 C14        -16.4690    -6.7860   -55.3530 cc         1 JU9       0.164400
     24 H1         -16.0600    -9.4430   -53.6080 hn         1 JU9       0.349000
     25 H2         -17.3080    -6.5600   -61.0490 ha         1 JU9       0.128000
     26 H3         -18.2970    -4.8360   -57.9170 ha         1 JU9       0.209000
     27 H4         -18.8520    -4.7990   -60.9770 ha         1 JU9       0.114000
     28 H5         -18.4130    -9.4210   -54.7000 h4         1 JU9       0.156000
     29 H6         -14.4480    -4.2400   -55.8810 h5         1 JU9       0.046800
     30 H7         -18.3330    -9.6560   -57.2910 ha         1 JU9       0.092000
     31 H8         -17.1620   -12.7970   -58.8180 h1         1 JU9       0.021033
     32 H9         -16.8890   -11.5670   -57.5640 h1         1 JU9       0.021033
     33 H10        -18.5330   -11.8510   -58.2000 h1         1 JU9       0.021033
     34 H11        -16.8220    -8.9740   -61.2800 ha         1 JU9       0.098000
     35 H14        -13.1060    -5.5280   -54.5140 hn         1 JU9       0.314500
     36 S1         -19.1130    -7.0150   -56.4350 ss         1 JU9       0.171000
     37 O1         -17.2420   -10.8200   -59.4910 os         1 JU9      -0.362100
@<TRIPOS>BOND
     1     1     8 1   
     2     1    19 1   
     3     1    24 1   
     4     2     9 2   
     5     2    23 1   
     6     3     4 ar  
     7     3    13 ar  
     8     3    25 1   
     9     4     5 1   
    10     4     7 ar  
    11     5     6 2   
    12     5    26 1   
    13     6    14 1   
    14     6    27 1   
    15     7    10 ar  
    16     7    36 1   
    17     8    18 2   
    18     8    28 1   
    19     9    22 1   
    20     9    29 1   
    21    10    12 ar  
    22    10    30 1   
    23    11    31 1   
    24    11    32 1   
    25    11    33 1   
    26    11    37 1   
    27    12    13 ar  
    28    12    37 1   
    29    13    34 1   
    30    14    15 1   
    31    14    16 1   
    32    14    17 1   
    33    18    23 1   
    34    18    36 1   
    35    19    20 1   
    36    19    23 2   
    37    20    21 2   
    38    20    22 1   
    39    22    35 1   
@<TRIPOS>SUBSTRUCTURE
     1 JU9         1 TEMP              0 ****  ****    0 ROOT
