@<TRIPOS>MOLECULE
JU9
   37    39     1     0     0
SMALL
bcc


@<TRIPOS>ATOM
      1 N1         -17.0040    -8.6160   -53.7790 na         1 JU9      -0.136100
      2 N3         -15.2520    -6.3040   -55.8010 nc         1 JU9      -0.511100
      3 C4         -17.9840    -7.0700   -60.5240 ca         1 JU9      -0.119000
      4 C5         -18.2850    -6.4080   -59.3270 ca         1 JU9       0.043200
      5 C6         -18.7710    -5.0220   -59.3160 ce         1 JU9      -0.246200
      6 C7         -19.4410    -4.3950   -60.2900 c2         1 JU9      -0.082600
      7 C8         -18.0600    -7.1260   -58.1450 ca         1 JU9       0.007900
      8 C10        -18.0260    -8.1820   -54.5440 cd         1 JU9      -0.085300
      9 C13        -14.0550    -6.4210   -55.3430 cd         1 JU9       0.449800
     10 C15        -17.5650    -8.4280   -58.1600 ca         1 JU9      -0.203000
     11 C1         -16.4800   -11.0120   -58.2930 c3         1 JU9       0.139700
     12 C2         -17.2670    -9.0470   -59.3670 ca         1 JU9       0.062100
     13 C3         -17.4890    -8.3560   -60.5610 ca         1 JU9      -0.159000
     14 P1         -19.9760    -2.6230   -60.2460 p5         1 JU9       1.125100
     15 O2         -19.5270    -2.0980   -58.8780 o          1 JU9      -0.921833
     16 O3         -21.4960    -2.7010   -60.4300 o          1 JU9      -0.921833
     17 O4         -19.2420    -1.9930   -61.4360 o          1 JU9      -0.921833
     18 C9         -17.5590    -7.2390   -55.4380 cc         1 JU9      -0.067100
     19 C11        -15.8600    -7.9790   -54.1560 cd         1 JU9      -0.264900
     20 C12        -14.5320    -8.1200   -53.6530 c          1 JU9       0.741100
     21 O5         -14.1380    -8.8600   -52.7670 o          1 JU9      -0.670500
     22 N2         -13.6830    -7.2600   -54.3400 ns         1 JU9      -0.493400
     23 C14        -16.1690    -7.1030   -55.1870 cc         1 JU9       0.164400
     24 H1         -17.0780    -9.3010   -53.0430 hn         1 JU9       0.298700
     25 H2         -18.1190    -6.5400   -61.4590 ha         1 JU9       0.146000
     26 H3         -18.5470    -4.4500   -58.4190 ha         1 JU9       0.159000
     27 H4         -19.7000    -4.9670   -61.1830 ha         1 JU9       0.064000
     28 H5         -19.0270    -8.5630   -54.4140 h4         1 JU9       0.174000
     29 H6         -13.2530    -5.8250   -55.7610 h5         1 JU9       0.046800
     30 H7         -17.4190    -8.9460   -57.2230 ha         1 JU9       0.110000
     31 H8         -16.0650   -11.9670   -58.6050 h1         1 JU9       0.021033
     32 H9         -15.7430   -10.4980   -57.6690 h1         1 JU9       0.021033
     33 H10        -17.3760   -11.1980   -57.6960 h1         1 JU9       0.021033
     34 H11        -17.2530    -8.8270   -61.5070 ha         1 JU9       0.116000
     35 H14        -12.7070    -7.2650   -54.0690 hn         1 JU9       0.314500
     36 S1         -18.4960    -6.3470   -56.6030 ss         1 JU9      -0.082800
     37 O1         -16.7670   -10.2930   -59.4740 os         1 JU9      -0.338900
@<TRIPOS>BOND
     1     1     8 1   
     2     1    19 1   
     3     1    24 1   
     4     2     9 2   
     5     2    23 1   
     6     3     4 ar  
     7     3    13 ar  
     8     3    25 1   
     9     4     5 1   
    10     4     7 ar  
    11     5     6 2   
    12     5    26 1   
    13     6    14 1   
    14     6    27 1   
    15     7    10 ar  
    16     7    36 1   
    17     8    18 2   
    18     8    28 1   
    19     9    22 1   
    20     9    29 1   
    21    10    12 ar  
    22    10    30 1   
    23    11    31 1   
    24    11    32 1   
    25    11    33 1   
    26    11    37 1   
    27    12    13 ar  
    28    12    37 1   
    29    13    34 1   
    30    14    15 1   
    31    14    16 1   
    32    14    17 1   
    33    18    23 1   
    34    18    36 1   
    35    19    20 1   
    36    19    23 2   
    37    20    21 2   
    38    20    22 1   
    39    22    35 1   
@<TRIPOS>SUBSTRUCTURE
     1 JU9         1 TEMP              0 ****  ****    0 ROOT
