@<TRIPOS>MOLECULE
JUA
   76    78     1     0     0
SMALL
No Charge or Current Charge


@<TRIPOS>ATOM
      1 N1          -1.7610     3.7950   -33.8070 nu         1 JUA      -0.908900
      2 N3           1.3750     1.2360   -34.2890 nb         1 JUA      -0.293000
      3 C4          -0.6810     2.9390   -33.9450 ca         1 JUA       0.430900
      4 C5           0.8830     1.9970   -35.2900 ca         1 JUA       0.209900
      5 C6           0.7620     1.4170   -33.1110 ca         1 JUA       0.425900
      6 C7           0.7640     0.6170   -30.7250 ca         1 JUA       0.379000
      7 C8           0.8400     1.8060   -29.9770 ca         1 JUA      -0.120000
      8 C10         -0.1300     0.6970   -28.0520 ca         1 JUA      -0.129000
      9 C13         -1.1460    -1.6920   -32.3910 c3         1 JUA      -0.270400
     10 C15         -3.2480    -1.1330   -30.9170 c3         1 JUA       0.106000
     11 C17         -6.5240     0.9670   -31.2230 c3         1 JUA       0.091500
     12 C20         -8.5730    -0.4240   -28.0930 c3         1 JUA      -0.077400
     13 C21         -9.4650     0.7570   -27.6510 c3         1 JUA       0.147800
     14 C22         -2.8280     3.3500   -31.6090 ca         1 JUA      -0.141000
     15 C24         -4.7430     3.1870   -28.4220 c3         1 JUA       0.145900
     16 C26         -4.6470     5.4280   -32.1070 ca         1 JUA      -0.147000
     17 C1          -4.4480     6.8990   -34.6050 c3         1 JUA       0.152900
     18 C11         -0.2180    -0.4950   -28.7890 ca         1 JUA      -0.014000
     19 C12          0.2250    -0.5400   -30.1310 ca         1 JUA      -0.258500
     20 C14         -2.2890    -0.6980   -32.0430 c3         1 JUA      -0.084400
     21 C16         -5.5420    -0.2430   -31.4650 c          1 JUA       0.596100
     22 C18         -7.7430     0.5540   -30.3600 c3         1 JUA      -0.076400
     23 C19         -7.3630    -0.0150   -28.9680 c3         1 JUA      -0.075400
     24 C2          -3.6520     5.1220   -33.0660 ca         1 JUA       0.068100
     25 C23         -3.8120     3.6530   -30.6610 ca         1 JUA       0.125100
     26 C25         -4.7250     4.6970   -30.9100 ca         1 JUA      -0.197000
     27 C3          -2.7260     4.0750   -32.8150 ca         1 JUA       0.323000
     28 C9           0.3980     1.8510   -28.6460 ca         1 JUA      -0.046000
     29 N2          -0.1470     2.8640   -35.1750 nb         1 JUA      -0.298000
     30 N4           1.1860     0.6430   -32.0520 nu         1 JUA      -0.974900
     31 N5          -4.3460    -0.1730   -30.7760 ns         1 JUA      -0.510900
     32 N6         -10.5500     0.3090   -26.7600 n8         1 JUA      -0.996200
     33 N7          -6.9980     1.6710   -32.4590 n8         1 JUA      -0.974200
     34 N8          -0.2540     2.2560   -32.8800 nb         1 JUA      -0.335000
     35 O2           1.3150    -2.3550   -31.7300 o          1 JUA      -0.527000
     36 O3          -5.7940    -1.1700   -32.2260 o          1 JUA      -0.575100
     37 O4          -0.5950    -3.0740   -30.1970 o          1 JUA      -0.527000
     38 O5          -3.8460     2.8940   -29.5080 os         1 JUA      -0.342100
     39 S1           0.0380    -2.0700   -31.0620 sy         1 JUA       1.029500
     40 H1          -1.9120     4.3610   -34.6420 hn         1 JUA       0.536000
     41 H2           1.3470     1.8970   -36.2700 h5         1 JUA       0.055100
     42 H3           1.2470     2.7020   -30.4350 ha         1 JUA       0.130000
     43 H4          -0.4760     0.7250   -27.0210 ha         1 JUA       0.121000
     44 H5          -1.5550    -2.6510   -32.7280 h1         1 JUA       0.104700
     45 H6          -0.5520    -1.2710   -33.2100 h1         1 JUA       0.104700
     46 H7          -3.6550    -2.1290   -31.1380 h1         1 JUA       0.061200
     47 H8          -2.7110    -1.1900   -29.9620 h1         1 JUA       0.061200
     48 H9          -5.9650     1.7180   -30.6530 h1         1 JUA       0.008700
     49 H10         -9.1790    -1.1580   -28.6380 hc         1 JUA       0.051200
     50 H11         -8.1930    -0.9320   -27.1980 hc         1 JUA       0.051200
     51 H12         -8.8570     1.5000   -27.1160 h1         1 JUA       0.024200
     52 H13         -9.9150     1.2400   -28.5290 h1         1 JUA       0.024200
     53 H14         -2.1520     2.5410   -31.3800 ha         1 JUA       0.167000
     54 H15         -4.5930     2.4720   -27.6030 h1         1 JUA       0.040033
     55 H16         -4.5630     4.1960   -28.0310 h1         1 JUA       0.040033
     56 H17         -5.7890     3.1170   -28.7460 h1         1 JUA       0.040033
     57 H18         -5.3660     6.2250   -32.2740 ha         1 JUA       0.119000
     58 H19         -4.1910     7.3070   -35.5900 h1         1 JUA       0.044033
     59 H20         -5.4870     6.5480   -34.6430 h1         1 JUA       0.044033
     60 H21         -4.3770     7.7120   -33.8720 h1         1 JUA       0.044033
     61 H22         -0.6400    -1.3770   -28.3080 ha         1 JUA       0.145000
     62 H23         -1.8620     0.2740   -31.7810 hc         1 JUA       0.069700
     63 H24         -2.8780    -0.5320   -32.9540 hc         1 JUA       0.069700
     64 H25         -8.3880     1.4300   -30.2250 hc         1 JUA       0.056700
     65 H26         -8.3330    -0.1940   -30.9040 hc         1 JUA       0.056700
     66 H27         -6.7290    -0.9000   -29.1000 hc         1 JUA       0.039700
     67 H28         -6.7610     0.7240   -28.4240 hc         1 JUA       0.039700
     68 H29         -5.5000     4.9520   -30.1930 ha         1 JUA       0.118000
     69 H30          0.4630     2.7770   -28.0800 ha         1 JUA       0.122000
     70 H31          1.7380    -0.1650   -32.3400 hn         1 JUA       0.548000
     71 H32         -4.2070     0.6400   -30.1860 hn         1 JUA       0.311500
     72 H33        -11.1510     1.1120   -26.5360 hn         1 JUA       0.391500
     73 H34        -11.1730    -0.3190   -27.2810 hn         1 JUA       0.391500
     74 H36         -7.5420     2.4980   -32.1900 hn         1 JUA       0.397000
     75 H37         -6.1910     2.0650   -32.9560 hn         1 JUA       0.397000
     76 O1          -3.5550     5.8220   -34.2630 os         1 JUA      -0.356100
@<TRIPOS>BOND
     1     1     3 1   
     2     1    27 1   
     3     1    40 1   
     4     2     4 ar  
     5     2     5 ar  
     6     3    29 ar  
     7     3    34 ar  
     8     4    29 ar  
     9     4    41 1   
    10     5    30 1   
    11     5    34 ar  
    12     6     7 ar  
    13     6    19 ar  
    14     6    30 1   
    15     7    28 ar  
    16     7    42 1   
    17     8    18 ar  
    18     8    28 ar  
    19     8    43 1   
    20     9    20 1   
    21     9    39 1   
    22     9    44 1   
    23     9    45 1   
    24    10    20 1   
    25    10    31 1   
    26    10    46 1   
    27    10    47 1   
    28    11    21 1   
    29    11    22 1   
    30    11    33 1   
    31    11    48 1   
    32    12    13 1   
    33    12    23 1   
    34    12    49 1   
    35    12    50 1   
    36    13    32 1   
    37    13    51 1   
    38    13    52 1   
    39    14    25 ar  
    40    14    27 ar  
    41    14    53 1   
    42    15    38 1   
    43    15    54 1   
    44    15    55 1   
    45    15    56 1   
    46    16    24 ar  
    47    16    26 ar  
    48    16    57 1   
    49    17    58 1   
    50    17    59 1   
    51    17    60 1   
    52    17    76 1   
    53    18    19 ar  
    54    18    61 1   
    55    19    39 1   
    56    20    62 1   
    57    20    63 1   
    58    21    31 1   
    59    21    36 2   
    60    22    23 1   
    61    22    64 1   
    62    22    65 1   
    63    23    66 1   
    64    23    67 1   
    65    24    27 ar  
    66    24    76 1   
    67    25    26 ar  
    68    25    38 1   
    69    26    68 1   
    70    28    69 1   
    71    30    70 1   
    72    31    71 1   
    73    32    72 1   
    74    32    73 1   
    75    33    74 1   
    76    33    75 1   
    77    35    39 2   
    78    37    39 2   
@<TRIPOS>SUBSTRUCTURE
     1 JUA         1 TEMP              0 ****  ****    0 ROOT
