@<TRIPOS>MOLECULE
JUA
   76    78     1     0     0
SMALL
abcg2


@<TRIPOS>ATOM
      1 N1          -1.6020     3.6840   -33.8010 nu         1 JUA      -0.908900
      2 N3           1.4570     1.1440   -34.3540 nb         1 JUA      -0.293000
      3 C4          -0.5560     2.8440   -33.9350 ca         1 JUA       0.430900
      4 C5           0.9730     1.9420   -35.2920 ca         1 JUA       0.209900
      5 C6           0.8550     1.2820   -33.1700 ca         1 JUA       0.425900
      6 C7           0.8400     0.5780   -30.8390 ca         1 JUA       0.379000
      7 C8           1.1380     1.7150   -30.0990 ca         1 JUA      -0.120000
      8 C10          0.0210     0.7910   -28.1800 ca         1 JUA      -0.129000
      9 C13         -1.5250    -1.2550   -32.4000 c3         1 JUA      -0.270400
     10 C15         -3.5270    -0.7150   -30.8630 c3         1 JUA       0.106000
     11 C17         -6.5900     1.5340   -30.8850 c3         1 JUA       0.091500
     12 C20         -8.8370    -0.6680   -28.5300 c3         1 JUA      -0.077400
     13 C21         -9.9070     0.2840   -28.0170 c3         1 JUA       0.147800
     14 C22         -2.2030     3.5140   -31.4180 ca         1 JUA      -0.141000
     15 C24         -3.6410     3.5930   -28.0960 c3         1 JUA       0.145900
     16 C26         -4.5170     4.9210   -31.9840 ca         1 JUA      -0.147000
     17 C1          -4.9790     5.6830   -34.6600 c3         1 JUA       0.152900
     18 C11         -0.2880    -0.3470   -28.9070 ca         1 JUA      -0.014000
     19 C12          0.1090    -0.4460   -30.2330 ca         1 JUA      -0.258500
     20 C14         -2.5250    -0.2240   -31.9030 c3         1 JUA      -0.084400
     21 C16         -5.6160     0.4650   -31.3690 c          1 JUA       0.596100
     22 C18         -7.8460     0.8620   -30.3270 c3         1 JUA      -0.076400
     23 C19         -7.5920     0.0190   -29.0820 c3         1 JUA      -0.075400
     24 C2          -3.6320     4.6390   -33.0050 ca         1 JUA       0.068100
     25 C23         -3.1180     3.7890   -30.3980 ca         1 JUA       0.125100
     26 C25         -4.2730     4.4980   -30.6760 ca         1 JUA      -0.197000
     27 C3          -2.4490     3.9190   -32.7190 ca         1 JUA       0.323000
     28 C9           0.7230     1.8260   -28.7820 ca         1 JUA      -0.046000
     29 N2          -0.0150     2.8020   -35.1650 nb         1 JUA      -0.298000
     30 N4           1.2750     0.4730   -32.1740 nu         1 JUA      -0.974900
     31 N5          -4.5360     0.2820   -30.5910 ns         1 JUA      -0.510900
     32 N6         -10.9900    -0.4550   -27.3810 n8         1 JUA      -0.996200
     33 N7          -6.9500     2.3830   -32.0070 n8         1 JUA      -0.974200
     34 N8          -0.1400     2.1210   -32.9070 nb         1 JUA      -0.335000
     35 O2           0.7700    -2.4650   -31.8320 o          1 JUA      -0.527000
     36 O3          -5.8270    -0.1990   -32.3730 o          1 JUA      -0.575100
     37 O4          -1.1460    -2.7490   -30.2490 o          1 JUA      -0.527000
     38 O5          -2.7770     3.3200   -29.1770 os         1 JUA      -0.342100
     39 S1          -0.3910    -1.8870   -31.1590 sy         1 JUA       1.029500
     40 H1          -1.8540     4.1540   -34.6590 hn         1 JUA       0.536000
     41 H2           1.4390     1.8770   -36.2700 h5         1 JUA       0.055100
     42 H3           1.7040     2.5130   -30.5620 ha         1 JUA       0.130000
     43 H4          -0.2930     0.8710   -27.1480 ha         1 JUA       0.121000
     44 H5          -2.0190    -2.1540   -32.7810 h1         1 JUA       0.104700
     45 H6          -0.9160    -0.8450   -33.2040 h1         1 JUA       0.104700
     46 H7          -4.0080    -1.6340   -31.2040 h1         1 JUA       0.061200
     47 H8          -3.0390    -0.9450   -29.9180 h1         1 JUA       0.061200
     48 H9          -6.1170     2.0960   -30.0630 h1         1 JUA       0.008700
     49 H10         -9.2690    -1.3140   -29.3030 hc         1 JUA       0.051200
     50 H11         -8.5440    -1.3270   -27.7080 hc         1 JUA       0.051200
     51 H12         -9.4600     0.9480   -27.2700 h1         1 JUA       0.024200
     52 H13        -10.2510     0.9310   -28.8350 h1         1 JUA       0.024200
     53 H14         -1.3040     2.9660   -31.1790 ha         1 JUA       0.167000
     54 H15         -3.1910     3.1390   -27.2160 h1         1 JUA       0.040033
     55 H16         -3.7530     4.6670   -27.9210 h1         1 JUA       0.040033
     56 H17         -4.6340     3.1590   -28.2440 h1         1 JUA       0.040033
     57 H18         -5.4240     5.4760   -32.1810 ha         1 JUA       0.119000
     58 H19         -4.9240     5.8510   -35.7320 h1         1 JUA       0.044033
     59 H20         -5.8720     5.0920   -34.4390 h1         1 JUA       0.044033
     60 H21         -5.0610     6.6490   -34.1550 h1         1 JUA       0.044033
     61 H22         -0.8480    -1.1470   -28.4440 ha         1 JUA       0.145000
     62 H23         -2.0020     0.6560   -31.5290 hc         1 JUA       0.069700
     63 H24         -3.0720     0.1060   -32.7880 hc         1 JUA       0.069700
     64 H25         -8.5640     1.6540   -30.1000 hc         1 JUA       0.056700
     65 H26         -8.2990     0.2480   -31.1120 hc         1 JUA       0.056700
     66 H27         -6.8500    -0.7530   -29.3050 hc         1 JUA       0.039700
     67 H28         -7.1460     0.6470   -28.3030 hc         1 JUA       0.039700
     68 H29         -5.0010     4.7340   -29.9130 ha         1 JUA       0.118000
     69 H30          0.9610     2.7190   -28.2200 ha         1 JUA       0.122000
     70 H31          1.9530    -0.2350   -32.4150 hn         1 JUA       0.548000
     71 H32         -4.4010     0.8900   -29.8000 hn         1 JUA       0.311500
     72 H33        -11.6950     0.1940   -27.0560 hn         1 JUA       0.391500
     73 H34        -11.4530    -1.0280   -28.0770 hn         1 JUA       0.391500
     74 H36         -7.6270     3.0670   -31.6920 hn         1 JUA       0.397000
     75 H37         -6.1430     2.9180   -32.3050 hn         1 JUA       0.397000
     76 O1          -3.7980     4.9990   -34.2980 os         1 JUA      -0.356100
@<TRIPOS>BOND
     1     1     3 1   
     2     1    27 1   
     3     1    40 1   
     4     2     4 ar  
     5     2     5 ar  
     6     3    29 ar  
     7     3    34 ar  
     8     4    29 ar  
     9     4    41 1   
    10     5    30 1   
    11     5    34 ar  
    12     6     7 ar  
    13     6    19 ar  
    14     6    30 1   
    15     7    28 ar  
    16     7    42 1   
    17     8    18 ar  
    18     8    28 ar  
    19     8    43 1   
    20     9    20 1   
    21     9    39 1   
    22     9    44 1   
    23     9    45 1   
    24    10    20 1   
    25    10    31 1   
    26    10    46 1   
    27    10    47 1   
    28    11    21 1   
    29    11    22 1   
    30    11    33 1   
    31    11    48 1   
    32    12    13 1   
    33    12    23 1   
    34    12    49 1   
    35    12    50 1   
    36    13    32 1   
    37    13    51 1   
    38    13    52 1   
    39    14    25 ar  
    40    14    27 ar  
    41    14    53 1   
    42    15    38 1   
    43    15    54 1   
    44    15    55 1   
    45    15    56 1   
    46    16    24 ar  
    47    16    26 ar  
    48    16    57 1   
    49    17    58 1   
    50    17    59 1   
    51    17    60 1   
    52    17    76 1   
    53    18    19 ar  
    54    18    61 1   
    55    19    39 1   
    56    20    62 1   
    57    20    63 1   
    58    21    31 1   
    59    21    36 2   
    60    22    23 1   
    61    22    64 1   
    62    22    65 1   
    63    23    66 1   
    64    23    67 1   
    65    24    27 ar  
    66    24    76 1   
    67    25    26 ar  
    68    25    38 1   
    69    26    68 1   
    70    28    69 1   
    71    30    70 1   
    72    31    71 1   
    73    32    72 1   
    74    32    73 1   
    75    33    74 1   
    76    33    75 1   
    77    35    39 2   
    78    37    39 2   
@<TRIPOS>SUBSTRUCTURE
     1 JUA         1 TEMP              0 ****  ****    0 ROOT
