@<TRIPOS>MOLECULE
JUC
   62    67     1     0     0
SMALL
No Charge or Current Charge


@<TRIPOS>ATOM
      1 C10         29.3400   -46.1640   -13.9700 ca         1 JUC       0.322700
      2 C13         32.9960   -49.3650    -5.8420 c5         1 JUC      -0.124400
      3 C15         33.3610   -47.8660    -7.6910 c5         1 JUC       0.204800
      4 C17         27.5310   -50.5920   -11.4210 c6         1 JUC       0.226500
      5 C18         27.2840   -51.1180   -12.8580 c6         1 JUC      -0.128900
      6 C19         25.8150   -50.8640   -13.2660 c6         1 JUC       0.153600
      7 C21         25.0640   -50.9430   -10.9630 c6         1 JUC       0.153600
      8 C22         26.4950   -51.2010   -10.4410 c6         1 JUC      -0.128900
      9 C24         28.3740   -46.5480   -14.9640 ca         1 JUC       0.354300
     10 C27         29.6770   -44.1550   -15.1160 ca         1 JUC       0.225000
     11 C28         28.7140   -44.5500   -16.0990 ca         1 JUC       0.235000
     12 C1          29.7690   -49.7640   -10.6430 cc         1 JUC       0.397000
     13 C2          30.5940   -49.8260    -9.5270 cd         1 JUC      -0.347000
     14 C3          31.4660   -48.7480    -9.1490 cd         1 JUC       0.685900
     15 N4          31.5860   -47.6150    -9.8100 nc         1 JUC      -0.774000
     16 N5          29.8840   -48.5470   -11.3530 na         1 JUC       0.066900
     17 C6          30.7680   -47.6100   -10.8890 cc         1 JUC       0.443500
     18 C7          30.6700   -46.6100   -11.7910 cd         1 JUC      -0.374600
     19 C8          29.7230   -47.0050   -12.7870 cd         1 JUC       0.323600
     20 N9          29.2300   -48.2220   -12.5350 nc         1 JUC      -0.591100
     21 N11         32.2700   -48.8370    -8.0150 nh         1 JUC      -0.793300
     22 C12         32.2110   -49.9550    -7.0420 c5         1 JUC       0.234800
     23 C14         34.1360   -48.5860    -6.5470 c5         1 JUC       0.174300
     24 N16         28.9340   -50.8360   -10.9710 nh         1 JUC      -0.790400
     25 O20         24.9280   -51.4700   -12.3010 os         1 JUC      -0.447000
     26 F23         35.0980   -49.4690    -7.0550 f          1 JUC      -0.262000
     27 N25         28.0690   -45.7410   -16.0190 nb         1 JUC      -0.655000
     28 N26         29.9830   -44.9560   -14.0640 nb         1 JUC      -0.630000
     29 C29         28.4330   -43.6810   -17.1710 ca         1 JUC      -0.078000
     30 C30         29.0820   -42.4400   -17.2850 ca         1 JUC      -0.101000
     31 C31         30.0250   -42.0530   -16.3220 ca         1 JUC      -0.108000
     32 C32         30.3170   -42.9080   -15.2460 ca         1 JUC      -0.070000
     33 C33         27.5900   -47.8560   -14.9650 c3         1 JUC      -0.141400
     34 C34         29.3500   -52.2360   -10.6940 c3         1 JUC       0.189100
     35 H40         32.3640   -48.6890    -5.2550 hc         1 JUC       0.068700
     36 H39         33.3670   -50.1410    -5.1640 hc         1 JUC       0.068700
     37 H42         34.0170   -47.6630    -8.5500 h1         1 JUC       0.075200
     38 H43         32.9490   -46.9090    -7.3440 h1         1 JUC       0.075200
     39 H44         27.3320   -49.5100   -11.4320 h1         1 JUC       0.087700
     40 H45         27.9610   -50.6240   -13.5650 hc         1 JUC       0.058200
     41 H46         27.4900   -52.1940   -12.9250 hc         1 JUC       0.058200
     42 H48         25.6110   -49.7850   -13.3190 h1         1 JUC       0.048700
     43 H47         25.6190   -51.2980   -14.2560 h1         1 JUC       0.048700
     44 H50         24.8460   -49.8650   -10.9720 h1         1 JUC       0.048700
     45 H49         24.3300   -51.4340   -10.3080 h1         1 JUC       0.048700
     46 H51         26.6440   -52.2830   -10.3330 hc         1 JUC       0.058200
     47 H52         26.6150   -50.7590    -9.4430 hc         1 JUC       0.058200
     48 H35         30.5690   -50.7140    -8.9150 ha         1 JUC       0.133000
     49 H36         31.2220   -45.6800   -11.7610 ha         1 JUC       0.238000
     50 H38         31.1820   -50.2170    -6.7560 h1         1 JUC       0.051200
     51 H37         32.7000   -50.8540    -7.4440 h1         1 JUC       0.051200
     52 H41         34.6450   -47.8780    -5.8800 h1         1 JUC       0.072700
     53 H53         27.7030   -43.9760   -17.9200 ha         1 JUC       0.132000
     54 H54         28.8530   -41.7810   -18.1200 ha         1 JUC       0.117000
     55 H55         30.5290   -41.0930   -16.4070 ha         1 JUC       0.118000
     56 H56         31.0490   -42.6030   -14.5020 ha         1 JUC       0.133000
     57 H59         26.8850   -47.9140   -15.8030 hc         1 JUC       0.058033
     58 H58         28.2650   -48.7150   -15.0530 hc         1 JUC       0.058033
     59 H57         27.0040   -47.9610   -14.0450 hc         1 JUC       0.058033
     60 H60         29.1220   -52.5040    -9.6540 h1         1 JUC       0.043700
     61 H61         28.8370   -52.9490   -11.3510 h1         1 JUC       0.043700
     62 H62         30.4310   -52.3540   -10.8530 h1         1 JUC       0.043700
@<TRIPOS>BOND
     1     1     9 ar  
     2     1    19 1   
     3     1    28 ar  
     4     2    22 1   
     5     2    23 1   
     6     2    35 1   
     7     2    36 1   
     8     3    21 1   
     9     3    23 1   
    10     3    37 1   
    11     3    38 1   
    12     4     5 1   
    13     4     8 1   
    14     4    24 1   
    15     4    39 1   
    16     5     6 1   
    17     5    40 1   
    18     5    41 1   
    19     6    25 1   
    20     6    42 1   
    21     6    43 1   
    22     7     8 1   
    23     7    25 1   
    24     7    44 1   
    25     7    45 1   
    26     8    46 1   
    27     8    47 1   
    28     9    27 ar  
    29     9    33 1   
    30    10    11 ar  
    31    10    28 ar  
    32    10    32 ar  
    33    11    27 ar  
    34    11    29 ar  
    35    12    13 2   
    36    12    16 1   
    37    12    24 1   
    38    13    14 1   
    39    13    48 1   
    40    14    15 2   
    41    14    21 1   
    42    15    17 1   
    43    16    17 1   
    44    16    20 1   
    45    17    18 2   
    46    18    19 1   
    47    18    49 1   
    48    19    20 2   
    49    21    22 1   
    50    22    50 1   
    51    22    51 1   
    52    23    26 1   
    53    23    52 1   
    54    24    34 1   
    55    29    30 ar  
    56    29    53 1   
    57    30    31 ar  
    58    30    54 1   
    59    31    32 ar  
    60    31    55 1   
    61    32    56 1   
    62    33    57 1   
    63    33    58 1   
    64    33    59 1   
    65    34    60 1   
    66    34    61 1   
    67    34    62 1   
@<TRIPOS>SUBSTRUCTURE
     1 JUC         1 TEMP              0 ****  ****    0 ROOT
