@<TRIPOS>MOLECULE
JUC
   62    67     1     0     0
SMALL
bcc


@<TRIPOS>ATOM
      1 C10         29.2580   -46.1230   -13.8440 ca         1 JUC       0.322700
      2 C13         33.1120   -49.7210    -6.0090 c5         1 JUC      -0.124400
      3 C15         32.9480   -47.8220    -7.4390 c5         1 JUC       0.204800
      4 C17         27.7170   -50.5030   -11.6380 c6         1 JUC       0.226500
      5 C18         27.3580   -51.1780   -12.9560 c6         1 JUC      -0.128900
      6 C19         25.8880   -50.9350   -13.2730 c6         1 JUC       0.130400
      7 C21         25.3150   -50.7030   -11.0230 c6         1 JUC       0.130400
      8 C22         26.7410   -50.9510   -10.5500 c6         1 JUC      -0.128900
      9 C24         28.1860   -46.4950   -14.7330 ca         1 JUC       0.354300
     10 C27         29.7030   -44.2940   -15.1470 ca         1 JUC       0.290300
     11 C28         28.6750   -44.6710   -16.0360 ca         1 JUC       0.300300
     12 C1          29.8410   -49.7150   -10.6890 cc         1 JUC       0.309300
     13 C2          30.6170   -49.8570    -9.5660 cd         1 JUC      -0.430300
     14 C3          31.3730   -48.7560    -9.0660 cd         1 JUC       0.751200
     15 N4          31.3500   -47.5630    -9.6340 nc         1 JUC      -0.774000
     16 N5          29.8700   -48.4720   -11.2810 na         1 JUC       0.016200
     17 C6          30.6210   -47.4390   -10.7450 cc         1 JUC       0.443500
     18 C7          30.4670   -46.3830   -11.6230 cd         1 JUC      -0.324600
     19 C8          29.6450   -46.8800   -12.6450 cd         1 JUC       0.323600
     20 N9          29.2910   -48.1420   -12.4430 nc         1 JUC      -0.591100
     21 N11         32.1310   -48.9030    -7.9650 nh         1 JUC      -0.793300
     22 C12         32.2980   -50.1470    -7.2280 c5         1 JUC       0.234800
     23 C14         33.9010   -48.5240    -6.4950 c5         1 JUC       0.155600
     24 N16         29.1260   -50.7190   -11.2680 nh         1 JUC      -0.652000
     25 O20         25.0410   -51.3710   -12.2340 os         1 JUC      -0.400600
     26 F23         35.0170   -48.9640    -7.2150 f          1 JUC      -0.243300
     27 N25         27.9310   -45.7720   -15.7890 nb         1 JUC      -0.655000
     28 N26         29.9660   -45.0460   -14.0610 nb         1 JUC      -0.630000
     29 C29         28.4190   -43.8870   -17.1790 ca         1 JUC      -0.161300
     30 C30         29.1690   -42.7650   -17.4130 ca         1 JUC      -0.119000
     31 C31         30.1940   -42.3840   -16.5210 ca         1 JUC      -0.126000
     32 C32         30.4610   -43.1320   -15.4050 ca         1 JUC      -0.153300
     33 C33         27.3090   -47.6820   -14.5040 c3         1 JUC      -0.141400
     34 C34         29.4740   -52.0670   -10.8550 c3         1 JUC       0.189100
     35 H40         32.4480   -49.3980    -5.2060 hc         1 JUC       0.068700
     36 H39         33.7430   -50.5180    -5.6170 hc         1 JUC       0.068700
     37 H42         33.4740   -47.2870    -8.2300 h1         1 JUC       0.075200
     38 H43         32.3430   -47.0910    -6.8940 h1         1 JUC       0.075200
     39 H44         27.5810   -49.4320   -11.7810 h1         1 JUC       0.087700
     40 H45         27.9770   -50.7810   -13.7630 hc         1 JUC       0.058200
     41 H46         27.5370   -52.2550   -12.9090 hc         1 JUC       0.058200
     42 H48         25.7260   -49.8640   -13.4680 h1         1 JUC       0.048700
     43 H47         25.5980   -51.4780   -14.1740 h1         1 JUC       0.048700
     44 H50         25.1500   -49.6210   -11.1380 h1         1 JUC       0.048700
     45 H49         24.5980   -51.0670   -10.2860 h1         1 JUC       0.048700
     46 H51         26.8620   -52.0140   -10.3260 hc         1 JUC       0.058200
     47 H52         26.9170   -50.3980    -9.6230 hc         1 JUC       0.058200
     48 H35         30.6230   -50.8010    -9.0460 ha         1 JUC       0.151000
     49 H36         30.9070   -45.4050   -11.5390 ha         1 JUC       0.188000
     50 H38         31.3370   -50.5750    -6.9360 h1         1 JUC       0.051200
     51 H37         32.8240   -50.8940    -7.8300 h1         1 JUC       0.051200
     52 H41         34.2620   -47.8760    -5.6960 h1         1 JUC       0.072700
     53 H53         27.6280   -44.1890   -17.8540 ha         1 JUC       0.150000
     54 H54         28.9770   -42.1600   -18.2890 ha         1 JUC       0.135000
     55 H55         30.7720   -41.4930   -16.7260 ha         1 JUC       0.136000
     56 H56         31.2450   -42.8550   -14.7130 ha         1 JUC       0.151000
     57 H59         26.4960   -47.6730   -15.2260 hc         1 JUC       0.058033
     58 H58         27.8650   -48.6120   -14.6140 hc         1 JUC       0.058033
     59 H57         26.8910   -47.6850   -13.4980 hc         1 JUC       0.058033
     60 H60         29.1760   -52.3030    -9.8290 h1         1 JUC       0.043700
     61 H61         28.9880   -52.7800   -11.5150 h1         1 JUC       0.043700
     62 H62         30.5490   -52.2140   -10.9440 h1         1 JUC       0.043700
@<TRIPOS>BOND
     1     1     9 ar  
     2     1    19 1   
     3     1    28 ar  
     4     2    22 1   
     5     2    23 1   
     6     2    35 1   
     7     2    36 1   
     8     3    21 1   
     9     3    23 1   
    10     3    37 1   
    11     3    38 1   
    12     4     5 1   
    13     4     8 1   
    14     4    24 1   
    15     4    39 1   
    16     5     6 1   
    17     5    40 1   
    18     5    41 1   
    19     6    25 1   
    20     6    42 1   
    21     6    43 1   
    22     7     8 1   
    23     7    25 1   
    24     7    44 1   
    25     7    45 1   
    26     8    46 1   
    27     8    47 1   
    28     9    27 ar  
    29     9    33 1   
    30    10    11 ar  
    31    10    28 ar  
    32    10    32 ar  
    33    11    27 ar  
    34    11    29 ar  
    35    12    13 2   
    36    12    16 1   
    37    12    24 1   
    38    13    14 1   
    39    13    48 1   
    40    14    15 2   
    41    14    21 1   
    42    15    17 1   
    43    16    17 1   
    44    16    20 1   
    45    17    18 2   
    46    18    19 1   
    47    18    49 1   
    48    19    20 2   
    49    21    22 1   
    50    22    50 1   
    51    22    51 1   
    52    23    26 1   
    53    23    52 1   
    54    24    34 1   
    55    29    30 ar  
    56    29    53 1   
    57    30    31 ar  
    58    30    54 1   
    59    31    32 ar  
    60    31    55 1   
    61    32    56 1   
    62    33    57 1   
    63    33    58 1   
    64    33    59 1   
    65    34    60 1   
    66    34    61 1   
    67    34    62 1   
@<TRIPOS>SUBSTRUCTURE
     1 JUC         1 TEMP              0 ****  ****    0 ROOT
