@<TRIPOS>MOLECULE
JUD
  175   176     1     0     0
SMALL
No Charge or Current Charge


@<TRIPOS>ATOM
      1 C1           5.1500    -3.1930     0.8450 c6         1 JUD       0.357300
      2 C5           3.5610    -2.8440    -1.1220 c6         1 JUD       0.152300
      3 C4           2.3850    -3.3570    -0.2190 c6         1 JUD       0.148300
      4 C3           2.7450    -3.0220     1.2610 c6         1 JUD       0.172300
      5 C2           1.6430    -3.5010     2.2630 c3         1 JUD       0.168600
      6 C6           4.9080    -3.4810    -0.6740 c6         1 JUD       0.116300
      7 O4           2.0950    -4.7800    -0.3530 os         1 JUD      -0.450000
      8 O1           5.3920    -1.7870     1.0510 os         1 JUD      -0.473000
      9 O3           3.3670    -3.0710    -2.5310 oh         1 JUD      -0.726000
     10 CBT         18.0610    16.2450    -1.9610 c3         1 JUD      -0.088100
     11 CBS         17.8280    14.7260    -2.0820 c3         1 JUD      -0.074400
     12 CBR         16.4140    14.2890    -1.6390 c3         1 JUD      -0.075400
     13 CBQ         16.1910    12.7640    -1.7560 c3         1 JUD      -0.074400
     14 CBP         14.7870    12.3150    -1.2920 c3         1 JUD      -0.074400
     15 CBO         14.5780    10.7870    -1.3960 c3         1 JUD      -0.074400
     16 CBN         13.1890    10.3290    -0.9010 c3         1 JUD      -0.074400
     17 CBM         12.9940     8.7980    -0.9820 c3         1 JUD      -0.074400
     18 CBL         11.6180     8.3310    -0.4560 c3         1 JUD      -0.074400
     19 CBK         11.4430     6.7970    -0.5080 c3         1 JUD      -0.074400
     20 CBJ         10.0840     6.3200     0.0500 c3         1 JUD      -0.074400
     21 CBI          9.9310     4.7830     0.0350 c3         1 JUD      -0.076400
     22 CBG          8.4540     2.7600     0.6600 c3         1 JUD      -0.108400
     23 CAQ          7.1640     2.2500     1.3620 c3         1 JUD       0.136300
     24 OAR          6.0400     2.7250     0.6030 oh         1 JUD      -0.638000
     25 CAP          7.0920     0.6840     1.5200 c3         1 JUD       0.129300
     26 OAS          8.3300     0.1770     2.0660 oh         1 JUD      -0.640000
     27 CAN          5.9160     0.1610     2.4180 c3         1 JUD       0.088700
     28 CAM          5.7840    -1.3880     2.3810 c3         1 JUD       0.143600
     29 O5           5.9840    -2.9630    -1.4950 oh         1 JUD      -0.710000
     30 O2           4.0170    -3.6210     1.6340 os         1 JUD      -0.448000
     31 O6           1.9340    -3.1690     3.6360 oh         1 JUD      -0.710000
     32 CAT          1.5070    -5.2530    -1.5800 c3         1 JUD       0.209900
     33 CAU          0.9610    -6.6550    -1.3380 ca         1 JUD      -0.059300
     34 CAV         -0.3760    -6.8400    -0.9380 ca         1 JUD      -0.102500
     35 CAW         -0.8810    -8.1320    -0.7140 ca         1 JUD      -0.062000
     36 CAX         -0.0570    -9.2650    -0.8910 ca         1 JUD      -0.194300
     37 CBA         -0.6060   -10.6730    -0.6320 c3         1 JUD       0.356300
     38 FBS          0.0260   -11.6170    -1.3670 f          1 JUD      -0.114000
     39 FBT         -0.4650   -11.0240     0.6660 f          1 JUD      -0.114000
     40 FBR         -1.9220   -10.7730    -0.9270 f          1 JUD      -0.114000
     41 CAY          1.2870    -9.0750    -1.2820 ca         1 JUD      -0.062000
     42 CAZ          1.7890    -7.7810    -1.5060 ca         1 JUD      -0.102500
     43 NAO          4.6260     0.8020     2.1140 ns         1 JUD      -0.501900
     44 CBE          3.5450     0.8440     2.9610 c          1 JUD       0.616100
     45 OBF          3.5760     0.3590     4.0830 o          1 JUD      -0.601100
     46 CBU          2.3220     1.5900     2.4190 c3         1 JUD      -0.149400
     47 CBV          1.1640     0.6200     2.0850 c3         1 JUD      -0.065400
     48 CBW         -0.1230     1.3500     1.6490 c3         1 JUD      -0.076400
     49 CBX         -1.3080     0.3940     1.3900 c3         1 JUD      -0.075400
     50 CBY         -2.5970     1.1420     0.9840 c3         1 JUD      -0.073400
     51 CBZ         -3.8190     0.2130     0.8180 c3         1 JUD      -0.075400
     52 CCA         -5.1040     0.9850     0.4470 c3         1 JUD      -0.073400
     53 CCB         -6.3610     0.0920     0.3710 c3         1 JUD      -0.074400
     54 CCC         -7.6380     0.8940     0.0320 c3         1 JUD      -0.074400
     55 CCD         -8.9230     0.0380     0.0380 c3         1 JUD      -0.074400
     56 CCE        -10.1910     0.8660    -0.2720 c3         1 JUD      -0.073400
     57 CCF        -11.4950     0.0390    -0.2040 c3         1 JUD      -0.074400
     58 CCG        -12.7540     0.8880    -0.4900 c3         1 JUD      -0.074400
     59 CCH        -14.0720     0.0890    -0.3710 c3         1 JUD      -0.074400
     60 CCI        -15.3220     0.9560    -0.6440 c3         1 JUD      -0.074400
     61 CCJ        -16.6510     0.1870    -0.4750 c3         1 JUD      -0.074400
     62 CCK        -17.8890     1.0720    -0.7430 c3         1 JUD      -0.074400
     63 CCL        -19.2300     0.3370    -0.5240 c3         1 JUD      -0.074400
     64 CCM        -20.4540     1.2410    -0.7960 c3         1 JUD      -0.074400
     65 CCN        -21.8050     0.5400    -0.5350 c3         1 JUD      -0.074400
     66 CCO        -23.0160     1.4560    -0.8230 c3         1 JUD      -0.074400
     67 CCP        -24.3750     0.7820    -0.5350 c3         1 JUD      -0.074400
     68 CCQ        -25.5760     1.7040    -0.8410 c3         1 JUD      -0.075400
     69 CCR        -26.9400     1.0460    -0.5420 c3         1 JUD      -0.074400
     70 CCS        -28.1340     1.9660    -0.8580 c3         1 JUD      -0.088100
     71 H1           6.0390    -3.7570     1.1670 h2         1 JUD       0.071700
     72 H2           3.6390    -1.7590    -0.9520 h1         1 JUD       0.055700
     73 H3           1.4750    -2.7970    -0.4800 h1         1 JUD       0.050700
     74 H4           2.8310    -1.9310     1.3660 h1         1 JUD       0.053700
     75 H5           0.6890    -3.0460     1.9630 h1         1 JUD       0.033200
     76 H6           1.5300    -4.5890     2.1600 h1         1 JUD       0.033200
     77 H7           4.8340    -4.5720    -0.7990 h1         1 JUD       0.068700
     78 H8           4.2830    -3.0610    -2.9030 ho         1 JUD       0.526000
     79 H9          17.9370    16.5750    -0.9230 hc         1 JUD       0.031367
     80 H10         19.0780    16.5010    -2.2830 hc         1 JUD       0.031367
     81 H11         17.3520    16.7990    -2.5890 hc         1 JUD       0.031367
     82 H12         17.9920    14.4230    -3.1240 hc         1 JUD       0.036700
     83 H13         18.5760    14.2020    -1.4740 hc         1 JUD       0.036700
     84 H14         16.2510    14.5980    -0.5990 hc         1 JUD       0.036700
     85 H15         15.6660    14.8120    -2.2490 hc         1 JUD       0.036700
     86 H16         16.3400    12.4580    -2.7990 hc         1 JUD       0.036700
     87 H17         16.9490    12.2440    -1.1590 hc         1 JUD       0.036700
     88 H18         14.6360    12.6290    -0.2520 hc         1 JUD       0.037200
     89 H19         14.0260    12.8260    -1.8960 hc         1 JUD       0.037200
     90 H20         14.7120    10.4750    -2.4390 hc         1 JUD       0.036700
     91 H21         15.3530    10.2790    -0.8080 hc         1 JUD       0.036700
     92 H22         13.0520    10.6540     0.1380 hc         1 JUD       0.037700
     93 H23         12.4120    10.8240    -1.4970 hc         1 JUD       0.037700
     94 H24         13.1110     8.4740    -2.0230 hc         1 JUD       0.036700
     95 H25         13.7840     8.3050    -0.4020 hc         1 JUD       0.036700
     96 H26         11.4940     8.6720     0.5790 hc         1 JUD       0.037700
     97 H27         10.8240     8.8060    -1.0470 hc         1 JUD       0.037700
     98 H28         11.5460     6.4560    -1.5460 hc         1 JUD       0.036700
     99 H29         12.2500     6.3250     0.0660 hc         1 JUD       0.036700
    100 H30          9.9730     6.6820     1.0800 hc         1 JUD       0.038700
    101 H31          9.2730     6.7700    -0.5370 hc         1 JUD       0.038700
    102 H32         10.0180     4.4200    -0.9970 hc         1 JUD       0.036700
    103 H33         10.7560     4.3350     0.6030 hc         1 JUD       0.036700
    104 H34          8.4990     4.6890     1.6560 hc         1 JUD       0.044200
    105 H35          7.7680     4.7440     0.0530 hc         1 JUD       0.044200
    106 H36          8.4920     2.3690    -0.3650 hc         1 JUD       0.049200
    107 H37          9.3340     2.3610     1.1770 hc         1 JUD       0.049200
    108 H38          7.1360     2.6870     2.3710 h1         1 JUD       0.069700
    109 H39          6.3770     3.4460     0.0160 ho         1 JUD       0.434000
    110 H40          6.9480     0.2720     0.5120 h1         1 JUD       0.077700
    111 H41          8.5350     0.6900     2.8770 ho         1 JUD       0.438000
    112 H42          6.1620     0.4330     3.4530 h1         1 JUD       0.091700
    113 H43          5.0320    -1.7030     3.1160 h1         1 JUD       0.050700
    114 H44          6.7380    -1.8530     2.6620 h1         1 JUD       0.050700
    115 H45          6.3090    -2.1520    -1.0320 ho         1 JUD       0.512000
    116 H46          1.2570    -3.6210     4.1920 ho         1 JUD       0.507000
    117 H47          0.6890    -4.5950    -1.9030 h1         1 JUD       0.047700
    118 H48          2.2490    -5.2980    -2.3850 h1         1 JUD       0.047700
    119 H49         -1.0260    -5.9790    -0.7970 ha         1 JUD       0.119500
    120 H50         -1.9160    -8.2480    -0.3980 ha         1 JUD       0.129500
    121 H51          1.9500    -9.9280    -1.4110 ha         1 JUD       0.129500
    122 H52          2.8260    -7.6530    -1.8070 ha         1 JUD       0.119500
    123 H53          4.5510     1.3170     1.2430 hn         1 JUD       0.307500
    124 H54          1.9770     2.2900     3.1890 hc         1 JUD       0.050700
    125 H55          2.5880     2.1430     1.5100 hc         1 JUD       0.050700
    126 H56          1.4790    -0.0610     1.2850 hc         1 JUD       0.056700
    127 H57          0.9460     0.0020     2.9660 hc         1 JUD       0.056700
    128 H58         -0.4080     2.0670     2.4290 hc         1 JUD       0.032700
    129 H59          0.0800     1.9300     0.7400 hc         1 JUD       0.032700
    130 H60         -1.0370    -0.3190     0.6010 hc         1 JUD       0.040200
    131 H61         -1.5020    -0.1900     2.2990 hc         1 JUD       0.040200
    132 H62         -2.8250     1.8970     1.7460 hc         1 JUD       0.036200
    133 H63         -2.4200     1.6800     0.0450 hc         1 JUD       0.036200
    134 H64         -3.6080    -0.5350     0.0440 hc         1 JUD       0.038200
    135 H65         -3.9860    -0.3330     1.7550 hc         1 JUD       0.038200
    136 H66         -5.2740     1.7730     1.1910 hc         1 JUD       0.037200
    137 H67         -4.9570     1.4860    -0.5190 hc         1 JUD       0.037200
    138 H68         -6.2100    -0.6890    -0.3860 hc         1 JUD       0.037700
    139 H69         -6.5000    -0.4160     1.3340 hc         1 JUD       0.037700
    140 H70         -7.7500     1.7080     0.7590 hc         1 JUD       0.036700
    141 H71         -7.5180     1.3600    -0.9540 hc         1 JUD       0.036700
    142 H72         -8.8270    -0.7690    -0.7000 hc         1 JUD       0.037700
    143 H73         -9.0350    -0.4370     1.0210 hc         1 JUD       0.037700
    144 H74        -10.2580     1.6970     0.4420 hc         1 JUD       0.037200
    145 H75        -10.0960     1.3100    -1.2710 hc         1 JUD       0.037200
    146 H76        -11.4400    -0.7840    -0.9280 hc         1 JUD       0.037200
    147 H77        -11.5820    -0.4120     0.7920 hc         1 JUD       0.037200
    148 H78        -12.7850     1.7310     0.2120 hc         1 JUD       0.036700
    149 H79        -12.6810     1.3140    -1.4980 hc         1 JUD       0.036700
    150 H80        -14.0520    -0.7520    -1.0760 hc         1 JUD       0.037700
    151 H81        -14.1440    -0.3390     0.6370 hc         1 JUD       0.037700
    152 H82        -15.3180     1.8150     0.0390 hc         1 JUD       0.037200
    153 H83        -15.2640     1.3580    -1.6640 hc         1 JUD       0.037200
    154 H84        -16.6640    -0.6710    -1.1600 hc         1 JUD       0.037200
    155 H85        -16.7090    -0.2140     0.5450 hc         1 JUD       0.037200
    156 H86        -17.8520     1.9490    -0.0850 hc         1 JUD       0.037200
    157 H87        -17.8470     1.4450    -1.7750 hc         1 JUD       0.037200
    158 H88        -19.2750    -0.5410    -1.1790 hc         1 JUD       0.037200
    159 H89        -19.2750    -0.0290     0.5100 hc         1 JUD       0.037200
    160 H90        -20.3880     2.1350    -0.1640 hc         1 JUD       0.036700
    161 H91        -20.4220     1.5830    -1.8390 hc         1 JUD       0.036700
    162 H92        -21.8750    -0.3590    -1.1600 hc         1 JUD       0.037200
    163 H93        -21.8430     0.2090     0.5110 hc         1 JUD       0.037200
    164 H94        -22.9310     2.3660    -0.2150 hc         1 JUD       0.036700
    165 H95        -22.9860     1.7700    -1.8730 hc         1 JUD       0.036700
    166 H96        -24.4590    -0.1320    -1.1350 hc         1 JUD       0.036700
    167 H97        -24.4100     0.4800     0.5200 hc         1 JUD       0.036700
    168 H98        -25.4840     2.6240    -0.2490 hc         1 JUD       0.036700
    169 H99        -25.5430     1.9990    -1.8970 hc         1 JUD       0.036700
    170 H100       -27.0350     0.1230    -1.1270 hc         1 JUD       0.036700
    171 H101       -26.9810     0.7590     0.5170 hc         1 JUD       0.036700
    172 H102       -28.0840     2.8870    -0.2640 hc         1 JUD       0.031367
    173 H103       -28.1420     2.2400    -1.9200 hc         1 JUD       0.031367
    174 H104       -29.0790     1.4600    -0.6270 hc         1 JUD       0.031367
    175 CBH          8.5890     4.3050     0.6320 c3         1 JUD      -0.071400
@<TRIPOS>BOND
     1     1     6 1   
     2     1     8 1   
     3     1    30 1   
     4     1    71 1   
     5     2     3 1   
     6     2     6 1   
     7     2     9 1   
     8     2    72 1   
     9     3     4 1   
    10     3     7 1   
    11     3    73 1   
    12     4     5 1   
    13     4    30 1   
    14     4    74 1   
    15     5    31 1   
    16     5    75 1   
    17     5    76 1   
    18     6    29 1   
    19     6    77 1   
    20     7    32 1   
    21     8    28 1   
    22     9    78 1   
    23    10    11 1   
    24    10    79 1   
    25    10    80 1   
    26    10    81 1   
    27    11    12 1   
    28    11    82 1   
    29    11    83 1   
    30    12    13 1   
    31    12    84 1   
    32    12    85 1   
    33    13    14 1   
    34    13    86 1   
    35    13    87 1   
    36    14    15 1   
    37    14    88 1   
    38    14    89 1   
    39    15    16 1   
    40    15    90 1   
    41    15    91 1   
    42    16    17 1   
    43    16    92 1   
    44    16    93 1   
    45    17    18 1   
    46    17    94 1   
    47    17    95 1   
    48    18    19 1   
    49    18    96 1   
    50    18    97 1   
    51    19    20 1   
    52    19    98 1   
    53    19    99 1   
    54    20    21 1   
    55    20   100 1   
    56    20   101 1   
    57    21   102 1   
    58    21   103 1   
    59    21   175 1   
    60    22    23 1   
    61    22   106 1   
    62    22   107 1   
    63    22   175 1   
    64    23    24 1   
    65    23    25 1   
    66    23   108 1   
    67    24   109 1   
    68    25    26 1   
    69    25    27 1   
    70    25   110 1   
    71    26   111 1   
    72    27    28 1   
    73    27    43 1   
    74    27   112 1   
    75    28   113 1   
    76    28   114 1   
    77    29   115 1   
    78    31   116 1   
    79    32    33 1   
    80    32   117 1   
    81    32   118 1   
    82    33    34 ar  
    83    33    42 ar  
    84    34    35 ar  
    85    34   119 1   
    86    35    36 ar  
    87    35   120 1   
    88    36    37 1   
    89    36    41 ar  
    90    37    38 1   
    91    37    39 1   
    92    37    40 1   
    93    41    42 ar  
    94    41   121 1   
    95    42   122 1   
    96    43    44 1   
    97    43   123 1   
    98    44    45 2   
    99    44    46 1   
   100    46    47 1   
   101    46   124 1   
   102    46   125 1   
   103    47    48 1   
   104    47   126 1   
   105    47   127 1   
   106    48    49 1   
   107    48   128 1   
   108    48   129 1   
   109    49    50 1   
   110    49   130 1   
   111    49   131 1   
   112    50    51 1   
   113    50   132 1   
   114    50   133 1   
   115    51    52 1   
   116    51   134 1   
   117    51   135 1   
   118    52    53 1   
   119    52   136 1   
   120    52   137 1   
   121    53    54 1   
   122    53   138 1   
   123    53   139 1   
   124    54    55 1   
   125    54   140 1   
   126    54   141 1   
   127    55    56 1   
   128    55   142 1   
   129    55   143 1   
   130    56    57 1   
   131    56   144 1   
   132    56   145 1   
   133    57    58 1   
   134    57   146 1   
   135    57   147 1   
   136    58    59 1   
   137    58   148 1   
   138    58   149 1   
   139    59    60 1   
   140    59   150 1   
   141    59   151 1   
   142    60    61 1   
   143    60   152 1   
   144    60   153 1   
   145    61    62 1   
   146    61   154 1   
   147    61   155 1   
   148    62    63 1   
   149    62   156 1   
   150    62   157 1   
   151    63    64 1   
   152    63   158 1   
   153    63   159 1   
   154    64    65 1   
   155    64   160 1   
   156    64   161 1   
   157    65    66 1   
   158    65   162 1   
   159    65   163 1   
   160    66    67 1   
   161    66   164 1   
   162    66   165 1   
   163    67    68 1   
   164    67   166 1   
   165    67   167 1   
   166    68    69 1   
   167    68   168 1   
   168    68   169 1   
   169    69    70 1   
   170    69   170 1   
   171    69   171 1   
   172    70   172 1   
   173    70   173 1   
   174    70   174 1   
   175   104   175 1   
   176   105   175 1   
@<TRIPOS>SUBSTRUCTURE
     1 JUD         1 TEMP              0 ****  ****    0 ROOT
