@<TRIPOS>MOLECULE
JUD
  175   176     1     0     0
SMALL
bcc


@<TRIPOS>ATOM
      1 C1           5.9960    -3.7790     1.2880 c6         1 JUD       0.310900
      2 C5           5.5670    -3.9700    -1.1770 c6         1 JUD       0.129100
      3 C4           4.1090    -4.2840    -0.8500 c6         1 JUD       0.125100
      4 C3           3.7720    -3.6070     0.4740 c6         1 JUD       0.149100
      5 C2           2.3490    -3.8450     0.9250 c3         1 JUD       0.145400
      6 C6           6.4600    -4.4190    -0.0250 c6         1 JUD       0.093100
      7 O4           3.8550    -5.6630    -0.7160 os         1 JUD      -0.403600
      8 O1           6.2560    -2.4150     1.2360 os         1 JUD      -0.426600
      9 O3           5.9200    -4.5910    -2.3860 oh         1 JUD      -0.603800
     10 CBT         16.4510    16.6600    -1.8450 c3         1 JUD      -0.088100
     11 CBS         16.3870    15.1420    -1.9240 c3         1 JUD      -0.074400
     12 CBR         15.0590    14.5790    -1.4300 c3         1 JUD      -0.075400
     13 CBQ         14.9810    13.0600    -1.5060 c3         1 JUD      -0.074400
     14 CBP         13.6560    12.4990    -1.0040 c3         1 JUD      -0.074400
     15 CBO         13.5770    10.9800    -1.0810 c3         1 JUD      -0.074400
     16 CBN         12.2560    10.4170    -0.5700 c3         1 JUD      -0.074400
     17 CBM         12.1790     8.8980    -0.6520 c3         1 JUD      -0.074400
     18 CBL         10.8670     8.3300    -0.1240 c3         1 JUD      -0.074400
     19 CBK         10.7930     6.8110    -0.2130 c3         1 JUD      -0.074400
     20 CBJ          9.5010     6.2330     0.3520 c3         1 JUD      -0.074400
     21 CBI          9.4310     4.7140     0.2490 c3         1 JUD      -0.076400
     22 CBG          8.1270     2.6030     0.7550 c3         1 JUD      -0.108400
     23 CAQ          6.9900     1.9610     1.5460 c3         1 JUD       0.113100
     24 OAR          5.7400     2.5070     1.1950 oh         1 JUD      -0.575800
     25 CAP          7.0200     0.4220     1.4380 c3         1 JUD       0.106100
     26 OAS          8.2610    -0.0610     1.8970 oh         1 JUD      -0.577800
     27 CAN          5.8520    -0.2590     2.1820 c3         1 JUD       0.088700
     28 CAM          6.0960    -1.7350     2.4660 c3         1 JUD       0.120400
     29 O5           7.7870    -4.0830    -0.3450 oh         1 JUD      -0.587800
     30 O2           4.6390    -4.0550     1.5030 os         1 JUD      -0.401600
     31 O6           2.0880    -3.0010     2.0210 oh         1 JUD      -0.587800
     32 CAT          3.5950    -6.3840    -1.8990 c3         1 JUD       0.186700
     33 CAU          2.6330    -7.4950    -1.5840 ca         1 JUD      -0.059300
     34 CAV          1.4050    -7.2170    -0.9840 ca         1 JUD      -0.120500
     35 CAW          0.5050    -8.2290    -0.7100 ca         1 JUD      -0.080000
     36 CAX          0.8210    -9.5470    -1.0330 ca         1 JUD      -0.194300
     37 CBA         -0.1490   -10.6330    -0.6940 c3         1 JUD       0.720200
     38 FBS          0.1040   -11.7730    -1.3440 f          1 JUD      -0.235300
     39 FBT         -0.1290   -10.9220     0.6180 f          1 JUD      -0.235300
     40 FBR         -1.4100   -10.2870    -0.9860 f          1 JUD      -0.235300
     41 CAY          2.0410    -9.8390    -1.6240 ca         1 JUD      -0.080000
     42 CAZ          2.9380    -8.8130    -1.8940 ca         1 JUD      -0.120500
     43 NAO          4.6170    -0.1120     1.4470 ns         1 JUD      -0.568900
     44 CBE          3.4540     0.2900     1.9890 c          1 JUD       0.683100
     45 OBF          3.3410     0.5960     3.1680 o          1 JUD      -0.601100
     46 CBU          2.2950     0.3500     1.0160 c3         1 JUD      -0.149400
     47 CBV          0.9380     0.4210     1.6960 c3         1 JUD      -0.065400
     48 CBW         -0.2160     0.4350     0.7030 c3         1 JUD      -0.076400
     49 CBX         -1.5710     0.5390     1.3910 c3         1 JUD      -0.075400
     50 CBY         -2.7510     0.5500     0.4270 c3         1 JUD      -0.073400
     51 CBZ         -4.0920     0.6770     1.1370 c3         1 JUD      -0.075400
     52 CCA         -5.2870     0.6920     0.1910 c3         1 JUD      -0.073400
     53 CCB         -6.6180     0.8310     0.9190 c3         1 JUD      -0.074400
     54 CCC         -7.8230     0.8490    -0.0140 c3         1 JUD      -0.074400
     55 CCD         -9.1480     0.9930     0.7250 c3         1 JUD      -0.074400
     56 CCE        -10.3590     1.0120    -0.1990 c3         1 JUD      -0.073400
     57 CCF        -11.6790     1.1580     0.5480 c3         1 JUD      -0.074400
     58 CCG        -12.8950     1.1780    -0.3700 c3         1 JUD      -0.074400
     59 CCH        -14.2120     1.3230     0.3820 c3         1 JUD      -0.074400
     60 CCI        -15.4300     1.3420    -0.5330 c3         1 JUD      -0.074400
     61 CCJ        -16.7470     1.4850     0.2210 c3         1 JUD      -0.074400
     62 CCK        -17.9660     1.5030    -0.6930 c3         1 JUD      -0.074400
     63 CCL        -19.2820     1.6420     0.0620 c3         1 JUD      -0.074400
     64 CCM        -20.5010     1.6590    -0.8530 c3         1 JUD      -0.074400
     65 CCN        -21.8180     1.7930    -0.1000 c3         1 JUD      -0.074400
     66 CCO        -23.0350     1.8090    -1.0160 c3         1 JUD      -0.074400
     67 CCP        -24.3550     1.9340    -0.2650 c3         1 JUD      -0.074400
     68 CCQ        -25.5700     1.9490    -1.1840 c3         1 JUD      -0.075400
     69 CCR        -26.8930     2.0640    -0.4370 c3         1 JUD      -0.074400
     70 CCS        -28.0970     2.0770    -1.3700 c3         1 JUD      -0.088100
     71 H1           6.5180    -4.2430     2.1360 h2         1 JUD       0.071700
     72 H2           5.6430    -2.8750    -1.2720 h1         1 JUD       0.055700
     73 H3           3.4700    -3.8530    -1.6350 h1         1 JUD       0.050700
     74 H4           3.8870    -2.5280     0.3160 h1         1 JUD       0.053700
     75 H5           1.6860    -3.6250     0.0770 h1         1 JUD       0.033200
     76 H6           2.2060    -4.9020     1.1830 h1         1 JUD       0.033200
     77 H7           6.3480    -5.5040     0.0940 h1         1 JUD       0.068700
     78 H8           6.8690    -4.4810    -2.5090 ho         1 JUD       0.427000
     79 H9          16.3140    17.0090    -0.8200 hc         1 JUD       0.031367
     80 H10         17.4100    17.0420    -2.1970 hc         1 JUD       0.031367
     81 H11         15.6690    17.1180    -2.4540 hc         1 JUD       0.031367
     82 H12         16.5530    14.8220    -2.9580 hc         1 JUD       0.036700
     83 H13         17.2030    14.7070    -1.3390 hc         1 JUD       0.036700
     84 H14         14.8950    14.9000    -0.3950 hc         1 JUD       0.036700
     85 H15         14.2410    15.0150    -2.0140 hc         1 JUD       0.036700
     86 H16         15.1410    12.7400    -2.5420 hc         1 JUD       0.036700
     87 H17         15.8020    12.6240    -0.9260 hc         1 JUD       0.036700
     88 H18         13.4980    12.8180     0.0330 hc         1 JUD       0.037200
     89 H19         12.8340    12.9360    -1.5820 hc         1 JUD       0.037200
     90 H20         13.7290    10.6620    -2.1190 hc         1 JUD       0.036700
     91 H21         14.4030    10.5430    -0.5080 hc         1 JUD       0.036700
     92 H22         12.1060    10.7330     0.4690 hc         1 JUD       0.037700
     93 H23         11.4300    10.8550    -1.1410 hc         1 JUD       0.037700
     94 H24         12.3180     8.5830    -1.6920 hc         1 JUD       0.036700
     95 H25         13.0130     8.4610    -0.0910 hc         1 JUD       0.036700
     96 H26         10.7320     8.6400     0.9180 hc         1 JUD       0.037700
     97 H27         10.0300     8.7680    -0.6800 hc         1 JUD       0.037700
     98 H28         10.9030     6.5030    -1.2590 hc         1 JUD       0.036700
     99 H29         11.6450     6.3750     0.3200 hc         1 JUD       0.036700
    100 H30          9.4020     6.5300     1.4020 hc         1 JUD       0.038700
    101 H31          8.6440     6.6740    -0.1690 hc         1 JUD       0.038700
    102 H32          9.4770     4.4200    -0.8060 hc         1 JUD       0.036700
    103 H33         10.3190     4.2790     0.7210 hc         1 JUD       0.036700
    104 H34          8.1660     4.3920     1.9530 hc         1 JUD       0.044200
    105 H35          7.2930     4.5740     0.4470 hc         1 JUD       0.044200
    106 H36          8.0310     2.3300    -0.3040 hc         1 JUD       0.049200
    107 H37          9.0780     2.1810     1.0900 hc         1 JUD       0.049200
    108 H38          7.1210     2.2160     2.6070 h1         1 JUD       0.069700
    109 H39          5.5830     2.3350     0.2600 ho         1 JUD       0.395000
    110 H40          6.9700     0.1400     0.3790 h1         1 JUD       0.077700
    111 H41          8.4020     0.2480     2.7990 ho         1 JUD       0.399000
    112 H42          5.7150     0.2270     3.1520 h1         1 JUD       0.091700
    113 H43          5.2290    -2.1110     3.0170 h1         1 JUD       0.050700
    114 H44          6.9760    -1.8750     3.1020 h1         1 JUD       0.050700
    115 H45          8.3800    -4.6650     0.1390 ho         1 JUD       0.413000
    116 H46          1.1620    -3.1010     2.2600 ho         1 JUD       0.408000
    117 H47          3.1490    -5.7310    -2.6600 h1         1 JUD       0.047700
    118 H48          4.5120    -6.7960    -2.3290 h1         1 JUD       0.047700
    119 H49          1.1400    -6.1970    -0.7360 ha         1 JUD       0.137500
    120 H50         -0.4430    -7.9810    -0.2500 ha         1 JUD       0.147500
    121 H51          2.3140   -10.8540    -1.8760 ha         1 JUD       0.147500
    122 H52          3.8900    -9.0530    -2.3520 ha         1 JUD       0.137500
    123 H53          4.6230    -0.3720     0.4740 hn         1 JUD       0.307500
    124 H54          2.4380     1.2250     0.3720 hc         1 JUD       0.050700
    125 H55          2.3350    -0.5190     0.3530 hc         1 JUD       0.050700
    126 H56          0.8240    -0.4340     2.3670 hc         1 JUD       0.056700
    127 H57          0.8850     1.3140     2.3240 hc         1 JUD       0.056700
    128 H58         -0.0950     1.2730     0.0080 hc         1 JUD       0.032700
    129 H59         -0.1840    -0.4740     0.0910 hc         1 JUD       0.032700
    130 H60         -1.6860    -0.2950     2.0920 hc         1 JUD       0.040200
    131 H61         -1.5960     1.4500     2.0010 hc         1 JUD       0.040200
    132 H62         -2.6340     1.3790    -0.2810 hc         1 JUD       0.036200
    133 H63         -2.7390    -0.3660    -0.1740 hc         1 JUD       0.036200
    134 H64         -4.2050    -0.1490     1.8480 hc         1 JUD       0.038200
    135 H65         -4.0970     1.5940     1.7380 hc         1 JUD       0.038200
    136 H66         -5.1740     1.5160    -0.5220 hc         1 JUD       0.037200
    137 H67         -5.2900    -0.2270    -0.4050 hc         1 JUD       0.037200
    138 H68         -6.7280     0.0080     1.6340 hc         1 JUD       0.037700
    139 H69         -6.6110     1.7500     1.5160 hc         1 JUD       0.037700
    140 H70         -7.7150     1.6710    -0.7310 hc         1 JUD       0.036700
    141 H71         -7.8360    -0.0710    -0.6090 hc         1 JUD       0.036700
    142 H72         -9.2540     0.1710     1.4420 hc         1 JUD       0.037700
    143 H73         -9.1320     1.9130     1.3210 hc         1 JUD       0.037700
    144 H74        -10.2550     1.8340    -0.9160 hc         1 JUD       0.037200
    145 H75        -10.3770     0.0920    -0.7930 hc         1 JUD       0.037200
    146 H76        -11.7820     0.3370     1.2660 hc         1 JUD       0.037200
    147 H77        -11.6600     2.0780     1.1430 hc         1 JUD       0.037200
    148 H78        -12.7930     2.0000    -1.0870 hc         1 JUD       0.036700
    149 H79        -12.9150     0.2580    -0.9650 hc         1 JUD       0.036700
    150 H80        -14.3120     0.5010     1.1000 hc         1 JUD       0.037700
    151 H81        -14.1910     2.2430     0.9770 hc         1 JUD       0.037700
    152 H82        -15.3310     2.1650    -1.2500 hc         1 JUD       0.037200
    153 H83        -15.4510     0.4220    -1.1290 hc         1 JUD       0.037200
    154 H84        -16.8450     0.6620     0.9390 hc         1 JUD       0.037200
    155 H85        -16.7260     2.4040     0.8170 hc         1 JUD       0.037200
    156 H86        -17.8680     2.3270    -1.4090 hc         1 JUD       0.037200
    157 H87        -17.9850     0.5850    -1.2900 hc         1 JUD       0.037200
    158 H88        -19.3790     0.8180     0.7780 hc         1 JUD       0.037200
    159 H89        -19.2640     2.5610     0.6590 hc         1 JUD       0.037200
    160 H90        -20.4050     2.4850    -1.5670 hc         1 JUD       0.036700
    161 H91        -20.5160     0.7420    -1.4520 hc         1 JUD       0.036700
    162 H92        -21.9140     0.9670     0.6140 hc         1 JUD       0.037200
    163 H93        -21.8030     2.7100     0.5000 hc         1 JUD       0.037200
    164 H94        -22.9420     2.6380    -1.7270 hc         1 JUD       0.036700
    165 H95        -23.0470     0.8940    -1.6190 hc         1 JUD       0.036700
    166 H96        -24.4490     1.1050     0.4450 hc         1 JUD       0.036700
    167 H97        -24.3450     2.8490     0.3390 hc         1 JUD       0.036700
    168 H98        -25.4790     2.7820    -1.8910 hc         1 JUD       0.036700
    169 H99        -25.5760     1.0380    -1.7920 hc         1 JUD       0.036700
    170 H100       -26.9840     1.2310     0.2670 hc         1 JUD       0.036700
    171 H101       -26.8890     2.9740     0.1710 hc         1 JUD       0.036700
    172 H102       -28.0490     2.9220    -2.0600 hc         1 JUD       0.031367
    173 H103       -28.1380     1.1650    -1.9700 hc         1 JUD       0.031367
    174 H104       -29.0350     2.1520    -0.8190 hc         1 JUD       0.031367
    175 CBH          8.1830     4.1200     0.8910 c3         1 JUD      -0.071400
@<TRIPOS>BOND
     1     1     6 1   
     2     1     8 1   
     3     1    30 1   
     4     1    71 1   
     5     2     3 1   
     6     2     6 1   
     7     2     9 1   
     8     2    72 1   
     9     3     4 1   
    10     3     7 1   
    11     3    73 1   
    12     4     5 1   
    13     4    30 1   
    14     4    74 1   
    15     5    31 1   
    16     5    75 1   
    17     5    76 1   
    18     6    29 1   
    19     6    77 1   
    20     7    32 1   
    21     8    28 1   
    22     9    78 1   
    23    10    11 1   
    24    10    79 1   
    25    10    80 1   
    26    10    81 1   
    27    11    12 1   
    28    11    82 1   
    29    11    83 1   
    30    12    13 1   
    31    12    84 1   
    32    12    85 1   
    33    13    14 1   
    34    13    86 1   
    35    13    87 1   
    36    14    15 1   
    37    14    88 1   
    38    14    89 1   
    39    15    16 1   
    40    15    90 1   
    41    15    91 1   
    42    16    17 1   
    43    16    92 1   
    44    16    93 1   
    45    17    18 1   
    46    17    94 1   
    47    17    95 1   
    48    18    19 1   
    49    18    96 1   
    50    18    97 1   
    51    19    20 1   
    52    19    98 1   
    53    19    99 1   
    54    20    21 1   
    55    20   100 1   
    56    20   101 1   
    57    21   102 1   
    58    21   103 1   
    59    21   175 1   
    60    22    23 1   
    61    22   106 1   
    62    22   107 1   
    63    22   175 1   
    64    23    24 1   
    65    23    25 1   
    66    23   108 1   
    67    24   109 1   
    68    25    26 1   
    69    25    27 1   
    70    25   110 1   
    71    26   111 1   
    72    27    28 1   
    73    27    43 1   
    74    27   112 1   
    75    28   113 1   
    76    28   114 1   
    77    29   115 1   
    78    31   116 1   
    79    32    33 1   
    80    32   117 1   
    81    32   118 1   
    82    33    34 ar  
    83    33    42 ar  
    84    34    35 ar  
    85    34   119 1   
    86    35    36 ar  
    87    35   120 1   
    88    36    37 1   
    89    36    41 ar  
    90    37    38 1   
    91    37    39 1   
    92    37    40 1   
    93    41    42 ar  
    94    41   121 1   
    95    42   122 1   
    96    43    44 1   
    97    43   123 1   
    98    44    45 2   
    99    44    46 1   
   100    46    47 1   
   101    46   124 1   
   102    46   125 1   
   103    47    48 1   
   104    47   126 1   
   105    47   127 1   
   106    48    49 1   
   107    48   128 1   
   108    48   129 1   
   109    49    50 1   
   110    49   130 1   
   111    49   131 1   
   112    50    51 1   
   113    50   132 1   
   114    50   133 1   
   115    51    52 1   
   116    51   134 1   
   117    51   135 1   
   118    52    53 1   
   119    52   136 1   
   120    52   137 1   
   121    53    54 1   
   122    53   138 1   
   123    53   139 1   
   124    54    55 1   
   125    54   140 1   
   126    54   141 1   
   127    55    56 1   
   128    55   142 1   
   129    55   143 1   
   130    56    57 1   
   131    56   144 1   
   132    56   145 1   
   133    57    58 1   
   134    57   146 1   
   135    57   147 1   
   136    58    59 1   
   137    58   148 1   
   138    58   149 1   
   139    59    60 1   
   140    59   150 1   
   141    59   151 1   
   142    60    61 1   
   143    60   152 1   
   144    60   153 1   
   145    61    62 1   
   146    61   154 1   
   147    61   155 1   
   148    62    63 1   
   149    62   156 1   
   150    62   157 1   
   151    63    64 1   
   152    63   158 1   
   153    63   159 1   
   154    64    65 1   
   155    64   160 1   
   156    64   161 1   
   157    65    66 1   
   158    65   162 1   
   159    65   163 1   
   160    66    67 1   
   161    66   164 1   
   162    66   165 1   
   163    67    68 1   
   164    67   166 1   
   165    67   167 1   
   166    68    69 1   
   167    68   168 1   
   168    68   169 1   
   169    69    70 1   
   170    69   170 1   
   171    69   171 1   
   172    70   172 1   
   173    70   173 1   
   174    70   174 1   
   175   104   175 1   
   176   105   175 1   
@<TRIPOS>SUBSTRUCTURE
     1 JUD         1 TEMP              0 ****  ****    0 ROOT
