@<TRIPOS>MOLECULE
JUE
   56    58     1     0     0
SMALL
No Charge or Current Charge


@<TRIPOS>ATOM
      1 C1          -0.7350     6.6320    -0.7650 c3         1 JUE       0.146900
      2 O2          -0.7690     5.4190    -1.5390 os         1 JUE      -0.338100
      3 C3          -0.7680     4.1710    -0.9500 ca         1 JUE       0.155100
      4 C4          -0.7340     3.9880     0.4490 ca         1 JUE      -0.174000
      5 C5          -0.7340     2.6910     0.9910 ca         1 JUE      -0.049000
      6 C6          -0.7660     1.5650     0.1440 ca         1 JUE      -0.158300
      7 C7          -0.8030     1.7520    -1.2520 ca         1 JUE      -0.049000
      8 C8          -0.8030     3.0490    -1.7910 ca         1 JUE      -0.174000
      9 C9          -0.7580     0.1560     0.7380 c3         1 JUE       0.089000
     10 N10         -2.0190    -0.5460     0.4200 ns         1 JUE      -0.495900
     11 C11         -3.2130    -0.3400     1.0690 c          1 JUE       0.627300
     12 O12         -3.2970     0.3990     2.0380 o          1 JUE      -0.599100
     13 C13         -4.3570    -1.1700     0.6070 ce         1 JUE      -0.334800
     14 C14         -4.4050    -1.6340    -0.7900 ce         1 JUE       0.550500
     15 N15         -5.2920    -2.5030    -1.1980 nf         1 JUE      -0.638100
     16 C16         -5.9620    -3.2610    -0.2260 c          1 JUE       0.692500
     17 O17         -5.9120    -4.4800    -0.2260 o          1 JUE      -0.488100
     18 C18         -6.4650    -2.4380     0.9590 c6         1 JUE      -0.204200
     19 C19         -5.3170    -1.5830     1.4760 c2         1 JUE      -0.075200
     20 C20          0.4780    -0.6610     0.2590 c          1 JUE       0.600100
     21 O21          0.3640    -1.6960    -0.3960 o          1 JUE      -0.594100
     22 N22          1.6940    -0.0930     0.6190 ns         1 JUE      -0.129000
     23 C23          3.0420    -0.4920     0.4040 ca         1 JUE      -0.029000
     24 C24          4.0570     0.3950     0.8090 ca         1 JUE      -0.144000
     25 C25          5.4120     0.0680     0.6300 ca         1 JUE      -0.081000
     26 C26          5.7790    -1.1580     0.0430 ca         1 JUE      -0.093300
     27 C27          4.7650    -2.0500    -0.3600 ca         1 JUE      -0.081000
     28 C28          3.4100    -1.7230    -0.1810 ca         1 JUE      -0.144000
     29 C29          7.2570    -1.5070    -0.1480 c3         1 JUE      -0.012400
     30 C30          7.6540    -2.7550     0.6710 c3         1 JUE      -0.085100
     31 C31          7.6120    -1.6690    -1.6430 c3         1 JUE      -0.085100
     32 H1          -1.6100     6.6990    -0.1050 h1         1 JUE       0.042700
     33 H2           0.1740     6.6790    -0.1520 h1         1 JUE       0.042700
     34 H3          -0.7420     7.5060    -1.4290 h1         1 JUE       0.042700
     35 H4          -0.7090     4.8350     1.1290 ha         1 JUE       0.126500
     36 H5          -0.7120     2.5630     2.0710 ha         1 JUE       0.118500
     37 H6          -0.8320     0.8940    -1.9210 ha         1 JUE       0.118500
     38 H7          -0.8310     3.1860    -2.8690 ha         1 JUE       0.126500
     39 H8          -0.6690     0.2250     1.8310 h1         1 JUE       0.080700
     40 H9          -1.9890    -1.2660    -0.2930 hn         1 JUE       0.347500
     41 H10         -3.7190    -1.1890    -1.5140 h4         1 JUE       0.030800
     42 H11         -7.2190    -1.7370     0.5790 hc         1 JUE       0.103200
     43 H12         -6.8870    -3.0930     1.7330 hc         1 JUE       0.103200
     44 H13         -5.3170    -1.3030     2.5350 ha         1 JUE       0.212000
     45 H14          1.6040     0.7770     1.1280 hn         1 JUE       0.158000
     46 H15          3.7970     1.3480     1.2650 ha         1 JUE       0.128000
     47 H16          6.1770     0.7730     0.9510 ha         1 JUE       0.114000
     48 H17          5.0250    -3.0040    -0.8130 ha         1 JUE       0.114000
     49 H18          2.6640    -2.4440    -0.5000 ha         1 JUE       0.128000
     50 H19          7.8680    -0.6770     0.2300 hc         1 JUE       0.047700
     51 H20          7.1230    -3.6470     0.3180 hc         1 JUE       0.035367
     52 H21          8.7310    -2.9440     0.5890 hc         1 JUE       0.035367
     53 H22          7.4150    -2.6090     1.7310 hc         1 JUE       0.035367
     54 H23          7.3430    -0.7640    -2.2010 hc         1 JUE       0.035367
     55 H24          8.6880    -1.8370    -1.7690 hc         1 JUE       0.035367
     56 H25          7.0800    -2.5180    -2.0880 hc         1 JUE       0.035367
@<TRIPOS>BOND
     1     1     2 1   
     2     1    32 1   
     3     1    33 1   
     4     1    34 1   
     5     2     3 1   
     6     3     4 ar  
     7     3     8 ar  
     8     4     5 ar  
     9     4    35 1   
    10     5     6 ar  
    11     5    36 1   
    12     6     7 ar  
    13     6     9 1   
    14     7     8 ar  
    15     7    37 1   
    16     8    38 1   
    17     9    10 1   
    18     9    20 1   
    19     9    39 1   
    20    10    11 1   
    21    10    40 1   
    22    11    12 2   
    23    11    13 1   
    24    13    14 1   
    25    13    19 2   
    26    14    15 2   
    27    14    41 1   
    28    15    16 1   
    29    16    17 2   
    30    16    18 1   
    31    18    19 1   
    32    18    42 1   
    33    18    43 1   
    34    19    44 1   
    35    20    21 2   
    36    20    22 1   
    37    22    23 1   
    38    22    45 1   
    39    23    24 ar  
    40    23    28 ar  
    41    24    25 ar  
    42    24    46 1   
    43    25    26 ar  
    44    25    47 1   
    45    26    27 ar  
    46    26    29 1   
    47    27    28 ar  
    48    27    48 1   
    49    28    49 1   
    50    29    30 1   
    51    29    31 1   
    52    29    50 1   
    53    30    51 1   
    54    30    52 1   
    55    30    53 1   
    56    31    54 1   
    57    31    55 1   
    58    31    56 1   
@<TRIPOS>SUBSTRUCTURE
     1 JUE         1 TEMP              0 ****  ****    0 ROOT
