@<TRIPOS>MOLECULE
JUE
   56    58     1     0     0
SMALL
bcc


@<TRIPOS>ATOM
      1 C1          -0.5870     6.3990    -0.8010 c3         1 JUE       0.123700
      2 O2          -0.7240     5.2150    -1.5610 os         1 JUE      -0.314900
      3 C3          -0.7230     4.0340    -0.9170 ca         1 JUE       0.155100
      4 C4          -0.6280     3.8900     0.4630 ca         1 JUE      -0.192000
      5 C5          -0.6420     2.6180     1.0240 ca         1 JUE      -0.067000
      6 C6          -0.7360     1.4830     0.2370 ca         1 JUE      -0.158300
      7 C7          -0.8340     1.6380    -1.1460 ca         1 JUE      -0.067000
      8 C8          -0.8280     2.8930    -1.7200 ca         1 JUE      -0.192000
      9 C9          -0.7220     0.1050     0.8580 c3         1 JUE       0.089000
     10 N10         -1.8760    -0.6770     0.5020 ns         1 JUE      -0.562900
     11 C11         -3.0900    -0.4000     1.0070 c          1 JUE       0.694300
     12 O12         -3.2840     0.5130     1.7940 o          1 JUE      -0.599100
     13 C13         -4.2030    -1.2870     0.5600 ce         1 JUE      -0.334800
     14 C14         -4.1440    -2.0720    -0.6630 ce         1 JUE       0.550500
     15 N15         -5.0210    -2.9130    -1.0710 nf         1 JUE      -0.638100
     16 C16         -6.1430    -3.1540    -0.2770 c          1 JUE       0.692500
     17 O17         -6.8520    -4.1010    -0.5220 o          1 JUE      -0.488100
     18 C18         -6.4600    -2.1990     0.8440 c6         1 JUE      -0.204200
     19 C19         -5.3430    -1.3300     1.2640 c2         1 JUE      -0.025200
     20 C20          0.5230    -0.6730     0.4110 c          1 JUE       0.667100
     21 O21          0.4330    -1.7160    -0.2120 o          1 JUE      -0.594100
     22 N22          1.6770    -0.0800     0.7710 ns         1 JUE      -0.455100
     23 C23          2.9990    -0.4660     0.5070 ca         1 JUE       0.063600
     24 C24          4.0000     0.4110     0.9210 ca         1 JUE      -0.162000
     25 C25          5.3350     0.1130     0.7010 ca         1 JUE      -0.099000
     26 C26          5.7190    -1.0630     0.0640 ca         1 JUE      -0.093300
     27 C27          4.7070    -1.9290    -0.3410 ca         1 JUE      -0.099000
     28 C28          3.3650    -1.6520    -0.1290 ca         1 JUE      -0.162000
     29 C29          7.1760    -1.3760    -0.1870 c3         1 JUE      -0.012400
     30 C30          7.5930    -2.6930     0.4670 c3         1 JUE      -0.085100
     31 C31          7.4900    -1.3880    -1.6840 c3         1 JUE      -0.085100
     32 H1          -1.4140     6.5310    -0.0980 h1         1 JUE       0.042700
     33 H2           0.3540     6.4200    -0.2450 h1         1 JUE       0.042700
     34 H3          -0.5950     7.2240    -1.5080 h1         1 JUE       0.042700
     35 H4          -0.5540     4.7470     1.1200 ha         1 JUE       0.144500
     36 H5          -0.5820     2.5200     2.1010 ha         1 JUE       0.136500
     37 H6          -0.9140     0.7690    -1.7900 ha         1 JUE       0.136500
     38 H7          -0.9020     3.0020    -2.7940 ha         1 JUE       0.144500
     39 H8          -0.6710     0.2160     1.9480 h1         1 JUE       0.080700
     40 H9          -1.7020    -1.5150    -0.0340 hn         1 JUE       0.347500
     41 H10         -3.2960    -1.9230    -1.3290 h4         1 JUE       0.030800
     42 H11         -7.2930    -1.5560     0.5250 hc         1 JUE       0.103200
     43 H12         -6.8580    -2.7520     1.6990 hc         1 JUE       0.103200
     44 H13         -5.4770    -0.7190     2.1480 ha         1 JUE       0.162000
     45 H14          1.5880     0.7950     1.2680 hn         1 JUE       0.324500
     46 H15          3.7350     1.3360     1.4190 ha         1 JUE       0.146000
     47 H16          6.0900     0.8160     1.0330 ha         1 JUE       0.132000
     48 H17          4.9630    -2.8580    -0.8380 ha         1 JUE       0.132000
     49 H18          2.6230    -2.3610    -0.4580 ha         1 JUE       0.146000
     50 H19          7.7630    -0.5740     0.2700 hc         1 JUE       0.047700
     51 H20          7.0660    -3.5420     0.0270 hc         1 JUE       0.035367
     52 H21          8.6620    -2.8650     0.3310 hc         1 JUE       0.035367
     53 H22          7.3880    -2.6910     1.5380 hc         1 JUE       0.035367
     54 H23          7.2280    -0.4390    -2.1520 hc         1 JUE       0.035367
     55 H24          8.5540    -1.5650    -1.8520 hc         1 JUE       0.035367
     56 H25          6.9400    -2.1790    -2.1980 hc         1 JUE       0.035367
@<TRIPOS>BOND
     1     1     2 1   
     2     1    32 1   
     3     1    33 1   
     4     1    34 1   
     5     2     3 1   
     6     3     4 ar  
     7     3     8 ar  
     8     4     5 ar  
     9     4    35 1   
    10     5     6 ar  
    11     5    36 1   
    12     6     7 ar  
    13     6     9 1   
    14     7     8 ar  
    15     7    37 1   
    16     8    38 1   
    17     9    10 1   
    18     9    20 1   
    19     9    39 1   
    20    10    11 1   
    21    10    40 1   
    22    11    12 2   
    23    11    13 1   
    24    13    14 1   
    25    13    19 2   
    26    14    15 2   
    27    14    41 1   
    28    15    16 1   
    29    16    17 2   
    30    16    18 1   
    31    18    19 1   
    32    18    42 1   
    33    18    43 1   
    34    19    44 1   
    35    20    21 2   
    36    20    22 1   
    37    22    23 1   
    38    22    45 1   
    39    23    24 ar  
    40    23    28 ar  
    41    24    25 ar  
    42    24    46 1   
    43    25    26 ar  
    44    25    47 1   
    45    26    27 ar  
    46    26    29 1   
    47    27    28 ar  
    48    27    48 1   
    49    28    49 1   
    50    29    30 1   
    51    29    31 1   
    52    29    50 1   
    53    30    51 1   
    54    30    52 1   
    55    30    53 1   
    56    31    54 1   
    57    31    55 1   
    58    31    56 1   
@<TRIPOS>SUBSTRUCTURE
     1 JUE         1 TEMP              0 ****  ****    0 ROOT
