@<TRIPOS>MOLECULE
JUF
   35    36     1     0     0
SMALL
No Charge or Current Charge


@<TRIPOS>ATOM
      1 C4          45.7800    37.6830    12.9400 c          1 JUF       0.655700
      2 C14         46.5550    40.0700    12.7920 cc         1 JUF       0.274000
      3 C5          46.6370    38.7650    12.3460 cd         1 JUF      -0.282600
      4 C6          47.5590    38.6440    11.2490 cd         1 JUF      -0.045000
      5 C11         50.9450    40.1050     7.6390 ca         1 JUF      -0.113000
      6 C7          48.1880    39.8160    10.9170 cc         1 JUF      -0.179000
      7 C8          49.1280    39.9030     9.7960 ca         1 JUF       0.011000
      8 C9          49.2290    41.0970     9.0520 ca         1 JUF      -0.108000
      9 C10         50.1300    41.1970     7.9780 ca         1 JUF      -0.105500
     10 C12         50.8590    38.9140     8.3770 ca         1 JUF      -0.105500
     11 C13         49.9570    38.8140     9.4510 ca         1 JUF      -0.108000
     12 N1          46.0880    36.3640    12.6740 ns         1 JUF      -0.474900
     13 C3          47.4160    35.8070    12.3780 c3         1 JUF       0.092000
     14 C1          47.7980    33.5460    15.3470 c3         1 JUF       0.146900
     15 O1          47.5800    34.7110    14.5340 os         1 JUF      -0.445000
     16 C2          47.6730    34.4760    13.1170 c3         1 JUF       0.120600
     17 O2          44.8060    37.9070    13.6460 o          1 JUF      -0.632100
     18 S1          47.6410    41.1520    11.9070 ss         1 JUF       0.132000
     19 H9          47.7170    37.7310    10.6880 ha         1 JUF       0.136000
     20 H12         51.6430    40.1830     6.8080 ha         1 JUF       0.113000
     21 H10         48.6020    41.9500     9.2980 ha         1 JUF       0.112000
     22 H11         50.1960    42.1220     7.4080 ha         1 JUF       0.111500
     23 H13         51.4940    38.0690     8.1210 ha         1 JUF       0.111500
     24 H14         49.9170    37.8890    10.0210 ha         1 JUF       0.112000
     25 H8          45.4130    35.7110    13.0500 hn         1 JUF       0.289500
     26 H16         45.5950    41.5370    13.8950 hn         1 JUF       0.484000
     27 H15         45.0450    39.9050    14.1590 hn         1 JUF       0.484000
     28 H6          48.1950    36.5210    12.6760 h1         1 JUF       0.064700
     29 H7          47.4940    35.6260    11.2980 h1         1 JUF       0.064700
     30 H1          47.7120    33.8020    16.4110 h1         1 JUF       0.029700
     31 H2          47.0570    32.7680    15.1210 h1         1 JUF       0.029700
     32 H3          48.8010    33.1320    15.1750 h1         1 JUF       0.029700
     33 H5          46.9310    33.7320    12.7970 h1         1 JUF       0.025700
     34 H4          48.6710    34.1030    12.8510 h1         1 JUF       0.025700
     35 N2          45.7680    40.5370    13.8080 nv         1 JUF      -1.055000
@<TRIPOS>BOND
     1     1     3 1   
     2     1    12 1   
     3     1    17 2   
     4     2     3 2   
     5     2    18 1   
     6     2    35 1   
     7     3     4 1   
     8     4     6 2   
     9     4    19 1   
    10     5     9 ar  
    11     5    10 ar  
    12     5    20 1   
    13     6     7 1   
    14     6    18 1   
    15     7     8 ar  
    16     7    11 ar  
    17     8     9 ar  
    18     8    21 1   
    19     9    22 1   
    20    10    11 ar  
    21    10    23 1   
    22    11    24 1   
    23    12    13 1   
    24    12    25 1   
    25    13    16 1   
    26    13    28 1   
    27    13    29 1   
    28    14    15 1   
    29    14    30 1   
    30    14    31 1   
    31    14    32 1   
    32    15    16 1   
    33    16    33 1   
    34    16    34 1   
    35    26    35 1   
    36    27    35 1   
@<TRIPOS>SUBSTRUCTURE
     1 JUF         1 TEMP              0 ****  ****    0 ROOT
