@<TRIPOS>MOLECULE
JUF
   35    36     1     0     0
SMALL
bcc


@<TRIPOS>ATOM
      1 C4          45.6110    37.1290    12.4100 c          1 JUF       0.722700
      2 C14         46.7980    39.2480    12.9750 cc         1 JUF       0.280500
      3 C5          46.6140    38.1660    12.1310 cd         1 JUF      -0.282600
      4 C6          47.4400    38.2500    10.9720 cd         1 JUF      -0.063000
      5 C11         51.0180    40.4940     7.8950 ca         1 JUF      -0.131000
      6 C7          48.2510    39.3390    10.9290 cc         1 JUF      -0.034100
      7 C8          49.2030    39.7420     9.9010 ca         1 JUF       0.011000
      8 C9          49.6460    41.0640     9.7900 ca         1 JUF      -0.126000
      9 C10         50.5480    41.4320     8.8030 ca         1 JUF      -0.123500
     10 C12         50.5830    39.1780     7.9930 ca         1 JUF      -0.123500
     11 C13         49.6930    38.8040     8.9870 ca         1 JUF      -0.126000
     12 N1          45.8200    35.8820    11.9010 ns         1 JUF      -0.541900
     13 C3          47.1050    35.2060    11.8810 c3         1 JUF       0.092000
     14 C1          47.8530    35.3140    15.4590 c3         1 JUF       0.123700
     15 O1          47.6290    35.7270    14.1350 os         1 JUF      -0.398600
     16 C2          47.4920    34.6560    13.2410 c3         1 JUF       0.097400
     17 O2          44.5850    37.3900    13.0330 o          1 JUF      -0.632100
     18 S1          48.0080    40.3160    12.3580 ss         1 JUF      -0.157800
     19 H9          47.3840    37.5360    10.1620 ha         1 JUF       0.154000
     20 H12         51.7190    40.7820     7.1230 ha         1 JUF       0.131000
     21 H10         49.2790    41.8240    10.4690 ha         1 JUF       0.130000
     22 H11         50.8770    42.4620     8.7410 ha         1 JUF       0.129500
     23 H13         50.9470    38.4320     7.2980 ha         1 JUF       0.129500
     24 H14         49.3900    37.7670     9.0590 ha         1 JUF       0.130000
     25 H8          45.0480    35.2600    12.1060 hn         1 JUF       0.289500
     26 H16         46.2770    40.4270    14.5490 hn         1 JUF       0.428800
     27 H15         45.3460    39.0300    14.3410 hn         1 JUF       0.428800
     28 H6          47.8840    35.8770    11.5260 h1         1 JUF       0.064700
     29 H7          47.0510    34.3830    11.1680 h1         1 JUF       0.064700
     30 H1          47.9340    36.2060    16.0790 h1         1 JUF       0.029700
     31 H2          47.0300    34.7000    15.8420 h1         1 JUF       0.029700
     32 H3          48.7790    34.7360    15.5600 h1         1 JUF       0.029700
     33 H5          46.7260    33.9460    13.5890 h1         1 JUF       0.025700
     34 H4          48.4300    34.0900    13.1450 h1         1 JUF       0.025700
     35 N2          46.2250    39.4940    14.1750 nv         1 JUF      -0.806200
@<TRIPOS>BOND
     1     1     3 1   
     2     1    12 1   
     3     1    17 2   
     4     2     3 2   
     5     2    18 1   
     6     2    35 1   
     7     3     4 1   
     8     4     6 2   
     9     4    19 1   
    10     5     9 ar  
    11     5    10 ar  
    12     5    20 1   
    13     6     7 1   
    14     6    18 1   
    15     7     8 ar  
    16     7    11 ar  
    17     8     9 ar  
    18     8    21 1   
    19     9    22 1   
    20    10    11 ar  
    21    10    23 1   
    22    11    24 1   
    23    12    13 1   
    24    12    25 1   
    25    13    16 1   
    26    13    28 1   
    27    13    29 1   
    28    14    15 1   
    29    14    30 1   
    30    14    31 1   
    31    14    32 1   
    32    15    16 1   
    33    16    33 1   
    34    16    34 1   
    35    26    35 1   
    36    27    35 1   
@<TRIPOS>SUBSTRUCTURE
     1 JUF         1 TEMP              0 ****  ****    0 ROOT
