@<TRIPOS>MOLECULE
JUG
   19    20     1     0     0
SMALL
abcg2


@<TRIPOS>ATOM
      1 OAA         -2.8090    -1.3110    -0.1080 o          1 JUG      -0.494100
      2 CAJ         -1.9490    -0.4560    -0.0590 c          1 JUG       0.563900
      3 CAF         -2.3180     0.9720    -0.0300 cc         1 JUG      -0.227200
      4 CAG         -1.4000     1.9370     0.0280 cd         1 JUG      -0.230200
      5 CAK          0.0410     1.6350     0.0650 c          1 JUG       0.587900
      6 OAB          0.8530     2.5550     0.1140 o          1 JUG      -0.554100
      7 CAM          0.4560     0.2350     0.0390 ca         1 JUG      -0.269600
      8 CAL         -0.5030    -0.7930    -0.0230 ca         1 JUG      -0.088600
      9 CAH         -0.1130    -2.1160    -0.0510 ca         1 JUG      -0.108000
     10 CAD          1.2460    -2.4310    -0.0150 ca         1 JUG      -0.051000
     11 CAE          2.2030    -1.4420     0.0480 ca         1 JUG      -0.149000
     12 CAI          1.8220    -0.0940     0.0750 ca         1 JUG       0.219100
     13 OAC          2.7820     0.8200     0.1320 oh         1 JUG      -0.534100
     14 HAF         -3.3760     1.2030    -0.0580 ha         1 JUG       0.208000
     15 HAG         -1.6790     2.9830     0.0500 ha         1 JUG       0.209000
     16 HAH         -0.8510    -2.9050    -0.0990 ha         1 JUG       0.141000
     17 HAD          1.5550    -3.4670    -0.0360 ha         1 JUG       0.124000
     18 HAE          3.2560    -1.6910     0.0750 ha         1 JUG       0.138000
     19 HOAC         2.3650     1.7080     0.1420 ho         1 JUG       0.515000
@<TRIPOS>BOND
     1     1     2 2   
     2     2     3 1   
     3     2     8 1   
     4     3     4 2   
     5     3    14 1   
     6     4     5 1   
     7     4    15 1   
     8     5     6 2   
     9     5     7 1   
    10     7     8 ar  
    11     7    12 ar  
    12     8     9 ar  
    13     9    10 ar  
    14     9    16 1   
    15    10    11 ar  
    16    10    17 1   
    17    11    12 ar  
    18    11    18 1   
    19    12    13 1   
    20    13    19 1   
@<TRIPOS>SUBSTRUCTURE
     1 JUG         1 TEMP              0 ****  ****    0 ROOT
