@<TRIPOS>MOLECULE
JUG
   19    20     1     0     0
SMALL
No Charge or Current Charge


@<TRIPOS>ATOM
      1 OAA         -2.8580    -1.3340    -0.1150 o          1 JUG      -0.494100
      2 CAJ         -2.0000    -0.4610    -0.0620 c          1 JUG       0.563900
      3 CAF         -2.3500     0.9690    -0.0310 cc         1 JUG      -0.227200
      4 CAG         -1.4000     1.9730     0.0290 cd         1 JUG      -0.230200
      5 CAK          0.0460     1.6970     0.0680 c          1 JUG       0.587900
      6 OAB          0.8660     2.6070     0.1210 o          1 JUG      -0.554100
      7 CAM          0.4720     0.2480     0.0390 ca         1 JUG      -0.269600
      8 CAL         -0.5140    -0.7810    -0.0230 ca         1 JUG      -0.088600
      9 CAH         -0.1000    -2.1320    -0.0490 ca         1 JUG      -0.108000
     10 CAD          1.2610    -2.4690    -0.0150 ca         1 JUG      -0.051000
     11 CAE          2.2270    -1.4570     0.0460 ca         1 JUG      -0.149000
     12 CAI          1.8410    -0.1110     0.0730 ca         1 JUG       0.219100
     13 OAC          2.8140     0.8390     0.1320 oh         1 JUG      -0.534100
     14 HAF         -3.4130     1.1840    -0.0590 ha         1 JUG       0.208000
     15 HAG         -1.6640     3.0240     0.0510 ha         1 JUG       0.209000
     16 HAH         -0.8370    -2.9320    -0.0960 ha         1 JUG       0.141000
     17 HAD          1.5650    -3.5140    -0.0350 ha         1 JUG       0.124000
     18 HAE          3.2820    -1.7170     0.0730 ha         1 JUG       0.138000
     19 HOAC         2.3450     1.7120     0.1420 ho         1 JUG       0.515000
@<TRIPOS>BOND
     1     1     2 2   
     2     2     3 1   
     3     2     8 1   
     4     3     4 2   
     5     3    14 1   
     6     4     5 1   
     7     4    15 1   
     8     5     6 2   
     9     5     7 1   
    10     7     8 ar  
    11     7    12 ar  
    12     8     9 ar  
    13     9    10 ar  
    14     9    16 1   
    15    10    11 ar  
    16    10    17 1   
    17    11    12 ar  
    18    11    18 1   
    19    12    13 1   
    20    13    19 1   
@<TRIPOS>SUBSTRUCTURE
     1 JUG         1 TEMP              0 ****  ****    0 ROOT
