@<TRIPOS>MOLECULE
JUH
   65    67     1     0     0
SMALL
abcg2


@<TRIPOS>ATOM
      1 C1          -2.6380     6.7370     0.0800 c3         1 JUH      -0.071100
      2 C2          -2.3410     5.2480     0.0490 c3         1 JUH      -0.292400
      3 O4          -4.1970     4.6080     1.8220 o          1 JUH      -0.519000
      4 O5          -4.7950     4.5120    -0.6170 o          1 JUH      -0.519000
      5 C7          -2.7800     2.0070     1.5200 ca         1 JUH      -0.013500
      6 C8          -2.3390     0.6950     1.4460 ca         1 JUH      -0.108500
      7 C9          -2.3800     0.0030     0.2420 ca         1 JUH      -0.056300
      8 C10         -2.8710     0.6320    -0.8980 ca         1 JUH      -0.108500
      9 C11         -3.3170     1.9410    -0.8390 ca         1 JUH      -0.013500
     10 C12         -1.8530    -1.4180     0.1550 c3         1 JUH       0.083000
     11 C16         -4.6820    -3.5180    -1.1750 c3         1 JUH      -0.107100
     12 C19         -7.3290    -5.4940     0.6830 ca         1 JUH      -0.108500
     13 C20         -8.4680    -4.7340     0.4470 ca         1 JUH      -0.102000
     14 C21         -8.3770    -3.5840    -0.3270 ca         1 JUH      -0.108500
     15 C22         -7.1530    -3.1970    -0.8570 ca         1 JUH      -0.091500
     16 C27          2.6030    -0.2870     1.2330 ca         1 JUH      -0.151500
     17 C30          3.7900    -0.3810    -1.2430 ca         1 JUH      -0.045000
     18 C31          2.4540    -0.7320    -1.1180 ca         1 JUH      -0.151500
     19 C32          6.0100     0.4040    -0.3800 c3         1 JUH       0.116300
     20 C34          6.0760     1.9390    -0.5480 c3         1 JUH       0.303500
     21 S3          -3.8110     4.3030     0.4450 sy         1 JUH       1.040500
     22 C6          -3.2620     2.6190     0.3720 ca         1 JUH      -0.258500
     23 N13         -2.6870    -2.2770    -0.6320 ns         1 JUH      -0.514900
     24 O15         -4.3320    -2.3260     0.8960 o          1 JUH      -0.574100
     25 C17         -6.0070    -3.9500    -0.6250 ca         1 JUH      -0.074300
     26 C18         -6.1090    -5.1020     0.1500 ca         1 JUH      -0.091500
     27 C23         -0.4660    -1.3500    -0.4920 c          1 JUH       0.604100
     28 O24         -0.3090    -1.5480    -1.6790 o          1 JUH      -0.573100
     29 C26          1.8440    -0.6860     0.1320 ca         1 JUH       0.005000
     30 C28          3.9320     0.0580     1.0960 ca         1 JUH      -0.045000
     31 C29          4.5560     0.0060    -0.1500 ca         1 JUH      -0.181300
     32 O33          6.5280    -0.0920    -1.5700 oh         1 JUH      -0.620000
     33 F35          7.3210     2.3780    -0.7300 f          1 JUH      -0.097833
     34 F36          5.3650     2.3050    -1.6120 f          1 JUH      -0.097833
     35 F37          5.5740     2.5740     0.5100 f          1 JUH      -0.097833
     36 C38          6.9410    -0.0850     0.7630 c3         1 JUH       0.303500
     37 F39          8.2230     0.0550     0.4390 f          1 JUH      -0.097833
     38 F40          6.7600     0.5590     1.9190 f          1 JUH      -0.097833
     39 F41          6.7280    -1.3840     0.9840 f          1 JUH      -0.097833
     40 H1          -1.7320     7.2800    -0.1830 hc         1 JUH       0.054367
     41 H2          -3.4080     7.0090    -0.6400 hc         1 JUH       0.054367
     42 H3          -2.9490     7.0660     1.0690 hc         1 JUH       0.054367
     43 H4          -2.0110     4.9190    -0.9370 h1         1 JUH       0.093700
     44 H5          -1.5810     4.9690     0.7790 h1         1 JUH       0.093700
     45 H6          -2.7540     2.5320     2.4650 ha         1 JUH       0.140500
     46 H7          -1.9750     0.2080     2.3420 ha         1 JUH       0.122500
     47 H8          -2.9180     0.0990    -1.8390 ha         1 JUH       0.122500
     48 H9          -3.7030     2.4180    -1.7290 ha         1 JUH       0.140500
     49 H10         -1.7590    -1.8210     1.1680 h1         1 JUH       0.083700
     50 H11         -4.8160    -2.9470    -2.0990 hc         1 JUH       0.066200
     51 H12         -4.0720    -4.3840    -1.4450 hc         1 JUH       0.066200
     52 H13         -7.3920    -6.3930     1.2820 ha         1 JUH       0.113500
     53 H14         -9.4210    -5.0380     0.8590 ha         1 JUH       0.113000
     54 H15         -9.2600    -2.9880    -0.5190 ha         1 JUH       0.113500
     55 H16         -7.0920    -2.3000    -1.4620 ha         1 JUH       0.109000
     56 H17          0.2340    -0.9420     1.3490 hn         1 JUH       0.160000
     57 H18          2.1480    -0.2400     2.2150 ha         1 JUH       0.136500
     58 H19          4.2170    -0.4150    -2.2360 ha         1 JUH       0.131500
     59 H20          1.9130    -1.0310    -2.0000 ha         1 JUH       0.136500
     60 H21         -2.3680    -2.5440    -1.5520 hn         1 JUH       0.340500
     61 H22         -5.2250    -5.7020     0.3360 ha         1 JUH       0.109000
     62 H23          4.4530     0.3690     1.9890 ha         1 JUH       0.131500
     63 H24          6.2980    -1.0240    -1.6750 ho         1 JUH       0.480000
     64 C14         -3.9040    -2.6580    -0.1950 c          1 JUH       0.600100
     65 N25          0.5060    -1.0000     0.3790 ns         1 JUH      -0.137000
@<TRIPOS>BOND
     1     1     2 1   
     2     1    40 1   
     3     1    41 1   
     4     1    42 1   
     5     2    21 1   
     6     2    43 1   
     7     2    44 1   
     8     3    21 2   
     9     4    21 2   
    10     5     6 ar  
    11     5    22 ar  
    12     5    45 1   
    13     6     7 ar  
    14     6    46 1   
    15     7     8 ar  
    16     7    10 1   
    17     8     9 ar  
    18     8    47 1   
    19     9    22 ar  
    20     9    48 1   
    21    10    23 1   
    22    10    27 1   
    23    10    49 1   
    24    11    25 1   
    25    11    50 1   
    26    11    51 1   
    27    11    64 1   
    28    12    13 ar  
    29    12    26 ar  
    30    12    52 1   
    31    13    14 ar  
    32    13    53 1   
    33    14    15 ar  
    34    14    54 1   
    35    15    25 ar  
    36    15    55 1   
    37    16    29 ar  
    38    16    30 ar  
    39    16    57 1   
    40    17    18 ar  
    41    17    31 ar  
    42    17    58 1   
    43    18    29 ar  
    44    18    59 1   
    45    19    20 1   
    46    19    31 1   
    47    19    32 1   
    48    19    36 1   
    49    20    33 1   
    50    20    34 1   
    51    20    35 1   
    52    21    22 1   
    53    23    60 1   
    54    23    64 1   
    55    24    64 2   
    56    25    26 ar  
    57    26    61 1   
    58    27    28 2   
    59    27    65 1   
    60    29    65 1   
    61    30    31 ar  
    62    30    62 1   
    63    32    63 1   
    64    36    37 1   
    65    36    38 1   
    66    36    39 1   
    67    56    65 1   
@<TRIPOS>SUBSTRUCTURE
     1 JUH         1 TEMP              0 ****  ****    0 ROOT
