@<TRIPOS>MOLECULE
JUH
   65    67     1     0     0
SMALL
No Charge or Current Charge


@<TRIPOS>ATOM
      1 C1          -3.3460     6.1670     0.9450 c3         1 JUH      -0.071100
      2 C2          -2.9360     4.6750     0.8830 c3         1 JUH      -0.292400
      3 O4          -4.8270     3.7250     2.4630 o          1 JUH      -0.519000
      4 O5          -5.2100     3.7260    -0.0690 o          1 JUH      -0.519000
      5 C7          -3.0550     1.2810     2.1320 ca         1 JUH      -0.013500
      6 C8          -2.4390     0.0210     2.0350 ca         1 JUH      -0.108500
      7 C9          -2.3070    -0.6160     0.7860 ca         1 JUH      -0.056300
      8 C10         -2.8020     0.0240    -0.3690 ca         1 JUH      -0.108500
      9 C11         -3.4200     1.2830    -0.2780 ca         1 JUH      -0.013500
     10 C12         -1.6340    -1.9850     0.6850 c3         1 JUH       0.083000
     11 C16         -4.5080    -4.4360    -0.1660 c3         1 JUH      -0.107100
     12 C19         -8.1200    -3.1660    -0.4900 ca         1 JUH      -0.108500
     13 C20         -8.0090    -2.2770    -1.5720 ca         1 JUH      -0.102000
     14 C21         -6.7660    -2.0900    -2.2000 ca         1 JUH      -0.108500
     15 C22         -5.6350    -2.7920    -1.7480 ca         1 JUH      -0.091500
     16 C27          2.6040     0.3000     0.9000 ca         1 JUH      -0.151500
     17 C30          3.9560    -0.7920    -1.2850 ca         1 JUH      -0.045000
     18 C31          2.6500    -1.2130    -0.9840 ca         1 JUH      -0.151500
     19 C32          6.0630     0.6290    -0.8780 c3         1 JUH       0.116300
     20 C34          5.9880     1.6380    -2.0930 c3         1 JUH       0.303500
     21 S3          -4.3300     3.5390     1.0930 sy         1 JUH       1.040500
     22 C6          -3.5500     1.9160     0.9740 ca         1 JUH      -0.258500
     23 N13         -2.5500    -2.9750     0.0760 ns         1 JUH      -0.514900
     24 O15         -3.9150    -3.2740     1.8740 o          1 JUH      -0.574100
     25 C17         -5.7410    -3.6860    -0.6630 ca         1 JUH      -0.074300
     26 C18         -6.9890    -3.8680    -0.0360 ca         1 JUH      -0.091500
     27 C23         -0.2960    -1.8890    -0.1030 c          1 JUH       0.604100
     28 O24         -0.1120    -2.4950    -1.1560 o          1 JUH      -0.573100
     29 C26          1.9580    -0.6700     0.1160 ca         1 JUH       0.005000
     30 C28          3.9100     0.7240     0.6020 ca         1 JUH      -0.045000
     31 C29          4.6210     0.1770    -0.4950 ca         1 JUH      -0.181300
     32 O33          6.7650    -0.5650    -1.3070 oh         1 JUH      -0.620000
     33 F35          7.2120     2.0820    -2.4640 f          1 JUH      -0.097833
     34 F36          5.4290     1.0610    -3.1840 f          1 JUH      -0.097833
     35 F37          5.2350     2.7230    -1.7900 f          1 JUH      -0.097833
     36 C38          6.8940     1.2460     0.3270 c3         1 JUH       0.303500
     37 F39          8.2090     1.3570     0.0210 f          1 JUH      -0.097833
     38 F40          6.4680     2.4820     0.6790 f          1 JUH      -0.097833
     39 F41          6.8150     0.4560     1.4260 f          1 JUH      -0.097833
     40 H1          -2.4670     6.8100     0.8120 hc         1 JUH       0.054367
     41 H2          -4.0660     6.4100     0.1540 hc         1 JUH       0.054367
     42 H3          -3.8000     6.4090     1.9140 hc         1 JUH       0.054367
     43 H4          -2.4820     4.4460    -0.0880 h1         1 JUH       0.093700
     44 H5          -2.2150     4.4460     1.6750 h1         1 JUH       0.093700
     45 H6          -3.1440     1.7570     3.1070 ha         1 JUH       0.140500
     46 H7          -2.0680    -0.4590     2.9370 ha         1 JUH       0.122500
     47 H8          -2.7110    -0.4550    -1.3410 ha         1 JUH       0.122500
     48 H9          -3.7930     1.7590    -1.1840 ha         1 JUH       0.140500
     49 H10         -1.3740    -2.3340     1.6930 h1         1 JUH       0.083700
     50 H11         -3.9300    -4.7770    -1.0330 hc         1 JUH       0.066200
     51 H12         -4.8140    -5.3030     0.4300 hc         1 JUH       0.066200
     52 H13         -9.0810    -3.3110    -0.0020 ha         1 JUH       0.113500
     53 H14         -8.8830    -1.7340    -1.9230 ha         1 JUH       0.113000
     54 H15         -6.6780    -1.4010    -3.0370 ha         1 JUH       0.113500
     55 H16         -4.6780    -2.6380    -2.2400 ha         1 JUH       0.109000
     56 H17          0.3140    -0.6050     1.3370 hn         1 JUH       0.160000
     57 H18          2.0890     0.7390     1.7520 ha         1 JUH       0.136500
     58 H19          4.4490    -1.2290    -2.1520 ha         1 JUH       0.131500
     59 H20          2.1970    -1.9640    -1.6220 ha         1 JUH       0.136500
     60 H21         -2.3850    -3.2530    -0.8850 hn         1 JUH       0.340500
     61 H22         -7.0850    -4.5510     0.8050 ha         1 JUH       0.109000
     62 H23          4.3450     1.4860     1.2400 ha         1 JUH       0.131500
     63 H24          6.6190    -1.2490    -0.6170 ho         1 JUH       0.480000
     64 C14         -3.6450    -3.5200     0.7070 c          1 JUH       0.600100
     65 N25          0.6370    -1.0440     0.4850 ns         1 JUH      -0.137000
@<TRIPOS>BOND
     1     1     2 1   
     2     1    40 1   
     3     1    41 1   
     4     1    42 1   
     5     2    21 1   
     6     2    43 1   
     7     2    44 1   
     8     3    21 2   
     9     4    21 2   
    10     5     6 ar  
    11     5    22 ar  
    12     5    45 1   
    13     6     7 ar  
    14     6    46 1   
    15     7     8 ar  
    16     7    10 1   
    17     8     9 ar  
    18     8    47 1   
    19     9    22 ar  
    20     9    48 1   
    21    10    23 1   
    22    10    27 1   
    23    10    49 1   
    24    11    25 1   
    25    11    50 1   
    26    11    51 1   
    27    11    64 1   
    28    12    13 ar  
    29    12    26 ar  
    30    12    52 1   
    31    13    14 ar  
    32    13    53 1   
    33    14    15 ar  
    34    14    54 1   
    35    15    25 ar  
    36    15    55 1   
    37    16    29 ar  
    38    16    30 ar  
    39    16    57 1   
    40    17    18 ar  
    41    17    31 ar  
    42    17    58 1   
    43    18    29 ar  
    44    18    59 1   
    45    19    20 1   
    46    19    31 1   
    47    19    32 1   
    48    19    36 1   
    49    20    33 1   
    50    20    34 1   
    51    20    35 1   
    52    21    22 1   
    53    23    60 1   
    54    23    64 1   
    55    24    64 2   
    56    25    26 ar  
    57    26    61 1   
    58    27    28 2   
    59    27    65 1   
    60    29    65 1   
    61    30    31 ar  
    62    30    62 1   
    63    32    63 1   
    64    36    37 1   
    65    36    38 1   
    66    36    39 1   
    67    56    65 1   
@<TRIPOS>SUBSTRUCTURE
     1 JUH         1 TEMP              0 ****  ****    0 ROOT
