@<TRIPOS>MOLECULE
JUJ
   42    45     1     0     0
SMALL
bcc


@<TRIPOS>ATOM
      1 C13          2.6330     2.5430     1.2780 c6         1 JUJ       0.106000
      2 C20         -0.1890    -2.2230     0.0540 cp         1 JUJ      -0.223300
      3 C21          0.5580    -2.4460     1.2020 ca         1 JUJ       0.466200
      4 C26         -0.0650    -3.1800    -0.9600 ca         1 JUJ      -0.034000
      5 O01          5.6010     2.5120    -1.7390 oh         1 JUJ      -0.556800
      6 C02          4.7240     2.6720    -0.6640 c3         1 JUJ       0.059400
      7 O04          4.0210     0.4920    -1.3360 o          1 JUJ      -0.556100
      8 N05          2.9230     1.4170     0.4090 n          1 JUJ      -0.486800
      9 C06          1.9710     0.3230     0.5230 c6         1 JUJ       0.167200
     10 C07          0.5800     0.8780     0.4400 cc         1 JUJ      -0.149400
     11 C08         -0.6790     0.2470     0.1700 ca         1 JUJ      -0.066800
     12 C09         -1.6300     1.2940     0.1030 ca         1 JUJ      -0.033200
     13 N10         -0.9910     2.4670     0.3490 na         1 JUJ      -0.153400
     14 C11          0.3370     2.2180     0.5490 cd         1 JUJ      -0.060300
     15 C12          1.3600     3.2570     0.8300 c6         1 JUJ      -0.044200
     16 C14         -2.9650     1.0680    -0.2110 ca         1 JUJ       0.000400
     17 CL2         -4.0570     2.3930    -0.2910 cl         1 JUJ      -0.086400
     18 C16         -3.3510    -0.2340    -0.4630 ca         1 JUJ       0.052400
     19 CL1         -4.9940    -0.5840    -0.8630 cl         1 JUJ      -0.086400
     20 C18         -2.4340    -1.2870    -0.3830 ca         1 JUJ      -0.145000
     21 C19         -1.1030    -1.0740    -0.0580 cp         1 JUJ       0.050000
     22 N22          1.3800    -3.4710     1.3790 nb         1 JUJ      -0.749000
     23 C23          1.5100    -4.3620     0.3980 ca         1 JUJ       0.672200
     24 N24          2.4060    -5.3680     0.5840 nv         1 JUJ      -0.944500
     25 C25          0.7820    -4.2500    -0.8010 ca         1 JUJ      -0.313300
     26 H1           2.5000     2.1580     2.2920 h1         1 JUJ       0.055200
     27 H2           3.4690     3.2350     1.3230 h1         1 JUJ       0.055200
     28 H3           0.4670    -1.7630     2.0420 h4         1 JUJ       0.020100
     29 H4          -0.6290    -3.0740    -1.8790 ha         1 JUJ       0.139000
     30 H5           6.1360     3.3080    -1.7930 ho         1 JUJ       0.403000
     31 H6           5.2570     2.8070     0.2880 h1         1 JUJ       0.029200
     32 H7           4.0780     3.5530    -0.7880 h1         1 JUJ       0.029200
     33 H8           2.1580    -0.3950    -0.2720 h1         1 JUJ       0.076700
     34 H9           2.1430    -0.1970     1.4720 h1         1 JUJ       0.076700
     35 H10         -1.4200     3.3790     0.3520 hn         1 JUJ       0.310700
     36 H11          1.0260     3.9420     1.6130 hc         1 JUJ       0.059200
     37 H12          1.5480     3.8640    -0.0610 hc         1 JUJ       0.059200
     38 H13         -2.7880    -2.2950    -0.5540 ha         1 JUJ       0.151000
     39 H14          2.7170    -5.5300     1.5280 hn         1 JUJ       0.419800
     40 H15          2.3120    -6.1990     0.0250 hn         1 JUJ       0.419800
     41 H16          0.8960    -4.9890    -1.5830 ha         1 JUJ       0.142000
     42 C03          3.8550     1.4250    -0.5690 c          1 JUJ       0.671100
@<TRIPOS>BOND
     1     1     8 1   
     2     1    15 1   
     3     1    26 1   
     4     1    27 1   
     5     2     3 ar  
     6     2     4 ar  
     7     2    21 1   
     8     3    22 ar  
     9     3    28 1   
    10     4    25 ar  
    11     4    29 1   
    12     5     6 1   
    13     5    30 1   
    14     6    31 1   
    15     6    32 1   
    16     6    42 1   
    17     7    42 2   
    18     8     9 1   
    19     8    42 1   
    20     9    10 1   
    21     9    33 1   
    22     9    34 1   
    23    10    11 1   
    24    10    14 2   
    25    11    12 ar  
    26    11    21 ar  
    27    12    13 1   
    28    12    16 ar  
    29    13    14 1   
    30    13    35 1   
    31    14    15 1   
    32    15    36 1   
    33    15    37 1   
    34    16    17 1   
    35    16    18 ar  
    36    18    19 1   
    37    18    20 ar  
    38    20    21 ar  
    39    20    38 1   
    40    22    23 ar  
    41    23    24 1   
    42    23    25 ar  
    43    24    39 1   
    44    24    40 1   
    45    25    41 1   
@<TRIPOS>SUBSTRUCTURE
     1 JUJ         1 TEMP              0 ****  ****    0 ROOT
