@<TRIPOS>MOLECULE
JUJ
   42    45     1     0     0
SMALL
No Charge or Current Charge


@<TRIPOS>ATOM
      1 C13          2.6000     2.5990     1.1940 c6         1 JUJ       0.106000
      2 C20         -0.2070    -2.2090     0.0560 cp         1 JUJ      -0.158000
      3 C21          0.5160    -2.4850     1.2440 ca         1 JUJ       0.400900
      4 C26          0.0060    -3.0590    -1.0520 ca         1 JUJ      -0.016000
      5 O01          6.0260     2.3530    -1.6330 oh         1 JUJ      -0.619000
      6 C02          4.9730     2.5190    -0.6500 c3         1 JUJ       0.082600
      7 O04          4.1530     0.2850    -1.2030 o          1 JUJ      -0.556100
      8 N05          2.8920     1.4050     0.3520 n          1 JUJ      -0.419800
      9 C06          1.8680     0.3290     0.4740 c6         1 JUJ       0.167200
     10 C07          0.4630     0.8970     0.4180 cc         1 JUJ      -0.149400
     11 C08         -0.8160     0.2630     0.1940 ca         1 JUJ      -0.066800
     12 C09         -1.7490     1.2740     0.1590 ca         1 JUJ      -0.033200
     13 N10         -1.1630     2.5090     0.3760 na         1 JUJ      -0.203700
     14 C11          0.2130     2.2610     0.5280 cd         1 JUJ      -0.060300
     15 C12          1.3000     3.2910     0.7270 c6         1 JUJ      -0.044200
     16 C14         -3.1070     1.0190    -0.0900 ca         1 JUJ       0.092000
     17 Cl2         -4.2700     2.3500    -0.1330 cl         1 JUJ      -0.178000
     18 C16         -3.5060    -0.3170    -0.3110 ca         1 JUJ       0.144000
     19 Cl1         -5.1920    -0.7190    -0.6360 cl         1 JUJ      -0.178000
     20 C18         -2.5520    -1.3550    -0.2710 ca         1 JUJ      -0.127000
     21 C19         -1.1840    -1.0900    -0.0060 cp         1 JUJ       0.050000
     22 N22          1.4090    -3.4940     1.3650 nb         1 JUJ      -0.749000
     23 C23          1.5930    -4.2560     0.2980 ca         1 JUJ       0.606900
     24 N24          2.4860    -5.2170     0.5410 nv         1 JUJ      -1.054900
     25 C25          0.9320    -4.1050    -0.9220 ca         1 JUJ      -0.230000
     26 H1           2.4710     2.2660     2.2340 h1         1 JUJ       0.055200
     27 H2           3.4260     3.3220     1.1970 h1         1 JUJ       0.055200
     28 H3           0.3680    -1.8680     2.1300 h4         1 JUJ       0.020100
     29 H4          -0.5300    -2.9030    -1.9860 ha         1 JUJ       0.121000
     30 H5           6.5780     3.1670    -1.6140 ho         1 JUJ       0.442000
     31 H6           5.4110     2.6780     0.3440 h1         1 JUJ       0.029200
     32 H7           4.3740     3.4070    -0.8920 h1         1 JUJ       0.029200
     33 H8           1.9920    -0.4160    -0.3250 h1         1 JUJ       0.076700
     34 H9           2.0270    -0.1920     1.4280 h1         1 JUJ       0.076700
     35 H10         -1.6270     3.4110     0.3950 hn         1 JUJ       0.361000
     36 H11          0.9970     4.0480     1.4620 hc         1 JUJ       0.059200
     37 H12          1.4880     3.8220    -0.2160 hc         1 JUJ       0.059200
     38 H13         -2.8760    -2.3790    -0.4340 ha         1 JUJ       0.133000
     39 H14          2.6980    -5.3560     1.5210 hn         1 JUJ       0.475000
     40 H15          2.4510    -6.0480    -0.0380 hn         1 JUJ       0.475000
     41 H16          1.1330    -4.7780    -1.7500 ha         1 JUJ       0.124000
     42 C03          3.9890     1.3050    -0.5400 c          1 JUJ       0.604100
@<TRIPOS>BOND
     1     1     8 1   
     2     1    15 1   
     3     1    26 1   
     4     1    27 1   
     5     2     3 ar  
     6     2     4 ar  
     7     2    21 1   
     8     3    22 ar  
     9     3    28 1   
    10     4    25 ar  
    11     4    29 1   
    12     5     6 1   
    13     5    30 1   
    14     6    31 1   
    15     6    32 1   
    16     6    42 1   
    17     7    42 2   
    18     8     9 1   
    19     8    42 1   
    20     9    10 1   
    21     9    33 1   
    22     9    34 1   
    23    10    11 1   
    24    10    14 2   
    25    11    12 ar  
    26    11    21 ar  
    27    12    13 1   
    28    12    16 ar  
    29    13    14 1   
    30    13    35 1   
    31    14    15 1   
    32    15    36 1   
    33    15    37 1   
    34    16    17 1   
    35    16    18 ar  
    36    18    19 1   
    37    18    20 ar  
    38    20    21 ar  
    39    20    38 1   
    40    22    23 ar  
    41    23    24 1   
    42    23    25 ar  
    43    24    39 1   
    44    24    40 1   
    45    25    41 1   
@<TRIPOS>SUBSTRUCTURE
     1 JUJ         1 TEMP              0 ****  ****    0 ROOT
