@<TRIPOS>MOLECULE
JUK
   53    57     1     0     0
SMALL
abcg2


@<TRIPOS>ATOM
      1 C1          -6.9290    -0.3990     0.7760 c5         1 JUK      -0.103400
      2 C10          2.6330    -2.0400    -1.0480 c3         1 JUK       0.025300
      3 C11         -2.2780    -1.2650    -0.7170 c          1 JUK       0.629300
      4 C12         -0.6210     0.5970    -0.5060 cc         1 JUK       0.058000
      5 C13         -0.8850    -0.7290    -0.6860 cd         1 JUK      -0.393800
      6 C14          0.2260    -1.6170    -0.8880 cd         1 JUK       0.510100
      7 C15          0.9450     2.4780    -0.2470 c          1 JUK       0.552000
      8 C16          0.6880     1.0840    -0.4530 cc         1 JUK      -0.360200
      9 C17          1.7610     0.2020    -0.5890 cd         1 JUK       0.378500
     10 C18          2.6670     4.1270     0.0100 cc         1 JUK      -0.054000
     11 C19          3.3040     1.8440    -0.3190 cc         1 JUK       0.151000
     12 C2          -7.6620     0.9530     0.7080 c5         1 JUK      -0.110400
     13 C20          4.6540     2.2480    -0.2420 cc         1 JUK      -0.151000
     14 C21          4.9800     3.5550    -0.0480 cd         1 JUK       0.010000
     15 C22          3.9590     4.5200     0.0800 cd         1 JUK      -0.152000
     16 C3          -6.5250     1.9750     0.7520 c5         1 JUK       0.148600
     17 C4          -5.4430    -0.0120     0.7410 c5         1 JUK       0.136300
     18 C5          -4.6140    -0.9260    -0.1310 c3         1 JUK       0.103000
     19 C6           3.0320    -4.2520     0.2500 cc         1 JUK      -0.139000
     20 C7           3.3070    -4.4930     1.6310 cc         1 JUK      -0.177000
     21 C8           3.2940    -3.2800     2.2290 cd         1 JUK       0.157900
     22 C9           2.8850    -2.9120     0.1260 cd         1 JUK       0.039300
     23 N1          -3.2170    -0.5340    -0.1160 ns         1 JUK      -0.462900
     24 N2           0.0330    -2.8920    -1.1210 nv         1 JUK      -0.564700
     25 N3           1.4950    -1.1300    -0.8330 na         1 JUK      -0.201700
     26 N4           3.0220     0.5650    -0.5180 nd         1 JUK      -0.417600
     27 N5           2.3380     2.8100    -0.1830 n          1 JUK       0.020200
     28 O1           0.1120     3.3460    -0.1290 o          1 JUK      -0.466000
     29 O2          -5.3990     1.3030     0.2240 os         1 JUK      -0.462000
     30 O3           3.0420    -2.3120     1.3220 os         1 JUK      -0.228000
     31 O4          -2.5430    -2.3320    -1.2720 o          1 JUK      -0.637100
     32 H1          -7.1650    -0.9610     1.6780 hc         1 JUK       0.060200
     33 H2          -7.1900    -1.0300    -0.0760 hc         1 JUK       0.060200
     34 H3           3.4950    -1.4140    -1.2650 h1         1 JUK       0.106700
     35 H4           2.4530    -2.6410    -1.9400 h1         1 JUK       0.106700
     36 H5          -1.4260     1.3140    -0.4060 ha         1 JUK       0.231000
     37 H6           1.8380     4.8100     0.1000 h4         1 JUK       0.188000
     38 H7          -8.2270     1.0390    -0.2190 hc         1 JUK       0.062700
     39 H8          -8.3610     1.0930     1.5310 hc         1 JUK       0.062700
     40 H10          6.0170     3.8540     0.0090 ha         1 JUK       0.155000
     41 H11          4.1870     5.5630     0.2340 ha         1 JUK       0.164000
     42 H12         -6.7130     2.8650     0.1510 h1         1 JUK       0.054200
     43 H13         -6.3350     2.2970     1.7850 h1         1 JUK       0.054200
     44 H14         -5.0390    -0.0220     1.7650 h1         1 JUK       0.041700
     45 H15         -4.7150    -1.9490     0.2400 h1         1 JUK       0.072200
     46 H16         -5.0000    -0.9110    -1.1540 h1         1 JUK       0.072200
     47 H18          3.4820    -5.4430     2.1090 ha         1 JUK       0.164000
     48 H19          3.4350    -2.9610     3.2490 h4         1 JUK       0.069100
     49 H20         -2.9640     0.2830     0.4140 hn         1 JUK       0.332500
     50 H21         -0.9280    -3.1950    -1.2590 hn         1 JUK       0.391500
     51 H22          0.7700    -3.5690    -1.2210 hn         1 JUK       0.391500
     52 H9           5.4040     1.4780    -0.3460 ha         1 JUK       0.169000
     53 H17          2.9610    -4.9810    -0.5420 ha         1 JUK       0.149000
@<TRIPOS>BOND
     1     1    12 1   
     2     1    17 1   
     3     1    32 1   
     4     1    33 1   
     5     2    22 1   
     6     2    25 1   
     7     2    34 1   
     8     2    35 1   
     9     3     5 1   
    10     3    23 1   
    11     3    31 2   
    12     4     5 2   
    13     4     8 1   
    14     4    36 1   
    15     5     6 1   
    16     6    24 2   
    17     6    25 1   
    18     7     8 1   
    19     7    27 1   
    20     7    28 2   
    21     8     9 2   
    22     9    25 1   
    23     9    26 1   
    24    10    15 2   
    25    10    27 1   
    26    10    37 1   
    27    11    13 1   
    28    11    26 2   
    29    11    27 1   
    30    12    16 1   
    31    12    38 1   
    32    12    39 1   
    33    13    14 2   
    34    13    52 1   
    35    14    15 1   
    36    14    40 1   
    37    15    41 1   
    38    16    29 1   
    39    16    42 1   
    40    16    43 1   
    41    17    18 1   
    42    17    29 1   
    43    17    44 1   
    44    18    23 1   
    45    18    45 1   
    46    18    46 1   
    47    19    20 1   
    48    19    22 2   
    49    19    53 1   
    50    20    21 2   
    51    20    47 1   
    52    21    30 1   
    53    21    48 1   
    54    22    30 1   
    55    23    49 1   
    56    24    50 1   
    57    24    51 1   
@<TRIPOS>SUBSTRUCTURE
     1 JUK         1 TEMP              0 ****  ****    0 ROOT
