@<TRIPOS>MOLECULE
JUK
   53    57     1     0     0
SMALL
No Charge or Current Charge


@<TRIPOS>ATOM
      1 C1          -7.1200    -0.0590     0.4210 c5         1 JUK      -0.103400
      2 C10          2.7170    -2.2020    -1.0740 c3         1 JUK       0.025300
      3 C11         -2.3310    -1.5140    -0.5390 c          1 JUK       0.629300
      4 C12         -0.6970     0.3850    -0.3930 cc         1 JUK       0.058000
      5 C13         -0.9380    -0.9610    -0.5620 cd         1 JUK      -0.393800
      6 C14          0.2320    -1.7750    -0.7390 cd         1 JUK       0.510100
      7 C15          0.7990     2.3510    -0.1440 c          1 JUK       0.552000
      8 C16          0.6400     0.9010    -0.3720 cc         1 JUK      -0.360200
      9 C17          1.7390     0.0750    -0.5520 cd         1 JUK       0.378500
     10 C18          2.4150     4.1680     0.0970 cc         1 JUK      -0.054000
     11 C19          3.1730     1.9000    -0.3010 cc         1 JUK       0.151000
     12 C2          -7.5550     1.2950     1.0480 c5         1 JUK      -0.110400
     13 C20          4.5090     2.4360    -0.2580 cc         1 JUK      -0.151000
     14 C21          4.7890     3.7680    -0.0470 cd         1 JUK       0.010000
     15 C22          3.6970     4.6700     0.1370 cd         1 JUK      -0.152000
     16 C3          -6.3850     2.2560     0.6670 c5         1 JUK       0.148600
     17 C4          -5.5850     0.0790     0.5130 c5         1 JUK       0.136300
     18 C5          -4.7730    -0.9240    -0.3360 c3         1 JUK       0.103000
     19 C6           3.5760    -4.3420     0.1290 cc         1 JUK      -0.139000
     20 C7           3.8390    -4.6400     1.4800 cc         1 JUK      -0.177000
     21 C8           3.5540    -3.5060     2.1900 cd         1 JUK       0.157900
     22 C9           3.1460    -3.0440     0.1010 cd         1 JUK       0.039300
     23 N1          -3.3430    -0.5940    -0.4000 ns         1 JUK      -0.462900
     24 N2           0.0700    -3.1190    -0.8890 nv         1 JUK      -0.564700
     25 N3           1.5550    -1.3010    -0.7950 na         1 JUK      -0.201700
     26 N4           3.0310     0.5990    -0.5140 nd         1 JUK      -0.417600
     27 N5           2.1240     2.8070    -0.1160 n          1 JUK       0.020200
     28 O1          -0.1590     3.0990     0.0130 o          1 JUK      -0.466000
     29 O2          -5.3850     1.4220     0.0390 os         1 JUK      -0.462000
     30 O3           3.1190    -2.4930     1.3630 os         1 JUK      -0.228000
     31 O4          -2.5870    -2.7050    -0.6350 o          1 JUK      -0.637100
     32 H1          -7.5030    -0.9250     0.9720 hc         1 JUK       0.060200
     33 H2          -7.4530    -0.1480    -0.6200 hc         1 JUK       0.060200
     34 H3           3.5830    -1.6200    -1.4100 h1         1 JUK       0.106700
     35 H4           2.4690    -2.8590    -1.9180 h1         1 JUK       0.106700
     36 H5          -1.5070     1.0980    -0.2440 ha         1 JUK       0.231000
     37 H6           1.5300     4.7790     0.2280 h4         1 JUK       0.188000
     38 H7          -8.5200     1.6420     0.6630 hc         1 JUK       0.062700
     39 H8          -7.6500     1.2190     2.1380 hc         1 JUK       0.062700
     40 H10          5.8150     4.1230    -0.0230 ha         1 JUK       0.155000
     41 H11          3.8740     5.7290     0.3060 ha         1 JUK       0.164000
     42 H12         -6.6960     3.0380    -0.0380 h1         1 JUK       0.054200
     43 H13         -5.9520     2.7350     1.5550 h1         1 JUK       0.054200
     44 H14         -5.2440     0.0210     1.5570 h1         1 JUK       0.041700
     45 H15         -4.9030    -1.9270     0.0910 h1         1 JUK       0.072200
     46 H16         -5.1730    -0.9380    -1.3590 h1         1 JUK       0.072200
     47 H18          4.1980    -5.5860     1.8710 ha         1 JUK       0.164000
     48 H19          3.6160    -3.2980     3.2510 h4         1 JUK       0.069100
     49 H20         -3.0970     0.3820    -0.3480 hn         1 JUK       0.332500
     50 H21         -0.8760    -3.4760    -0.7870 hn         1 JUK       0.391500
     51 H22          0.8320    -3.7420    -0.6650 hn         1 JUK       0.391500
     52 H9           5.3320     1.7430    -0.4010 ha         1 JUK       0.169000
     53 H17          3.6970    -5.0200    -0.7120 ha         1 JUK       0.149000
@<TRIPOS>BOND
     1     1    12 1   
     2     1    17 1   
     3     1    32 1   
     4     1    33 1   
     5     2    22 1   
     6     2    25 1   
     7     2    34 1   
     8     2    35 1   
     9     3     5 1   
    10     3    23 1   
    11     3    31 2   
    12     4     5 2   
    13     4     8 1   
    14     4    36 1   
    15     5     6 1   
    16     6    24 2   
    17     6    25 1   
    18     7     8 1   
    19     7    27 1   
    20     7    28 2   
    21     8     9 2   
    22     9    25 1   
    23     9    26 1   
    24    10    15 2   
    25    10    27 1   
    26    10    37 1   
    27    11    13 1   
    28    11    26 2   
    29    11    27 1   
    30    12    16 1   
    31    12    38 1   
    32    12    39 1   
    33    13    14 2   
    34    13    52 1   
    35    14    15 1   
    36    14    40 1   
    37    15    41 1   
    38    16    29 1   
    39    16    42 1   
    40    16    43 1   
    41    17    18 1   
    42    17    29 1   
    43    17    44 1   
    44    18    23 1   
    45    18    45 1   
    46    18    46 1   
    47    19    20 1   
    48    19    22 2   
    49    19    53 1   
    50    20    21 2   
    51    20    47 1   
    52    21    30 1   
    53    21    48 1   
    54    22    30 1   
    55    23    49 1   
    56    24    50 1   
    57    24    51 1   
@<TRIPOS>SUBSTRUCTURE
     1 JUK         1 TEMP              0 ****  ****    0 ROOT
