@<TRIPOS>MOLECULE
JUL
   51    55     1     0     0
SMALL
No Charge or Current Charge


@<TRIPOS>ATOM
      1 C02         -6.2630    -9.6550    40.7020 c          1 JUL       0.556000
      2 C03         -6.4820    -8.1570    40.3540 c6         1 JUL       0.152800
      3 C05         -7.1700    -6.5980    38.5260 ca         1 JUL       0.437900
      4 C07         -7.3780    -4.3240    38.7930 ca         1 JUL       0.430900
      5 C09         -5.9280    -3.1740    40.5540 c6         1 JUL       0.191800
      6 C10         -5.1770    -1.8270    40.7710 c6         1 JUL       0.136100
      7 C12         -6.8670    -0.5770    39.6190 c6         1 JUL       0.136100
      8 C13         -7.7150    -1.8530    39.3360 c6         1 JUL       0.191800
      9 C15         -8.8440    -5.3570    37.3710 ca         1 JUL       0.168300
     10 C16         -8.2540    -6.5700    37.6370 ca         1 JUL      -0.287300
     11 C17         -8.9360    -7.7120    36.9240 c5         1 JUL      -0.000100
     12 C18        -10.3090    -7.0330    36.5580 c5         1 JUL      -0.081400
     13 C19        -10.0000    -5.4920    36.4200 c5         1 JUL      -0.138700
     14 C20         -5.9400    -8.6870    37.9410 ca         1 JUL       0.224000
     15 C21         -5.6710    -8.2850    36.6140 ca         1 JUL      -0.072000
     16 C22         -5.1130    -9.1830    35.6840 ca         1 JUL      -0.203000
     17 C23         -4.8050   -10.5030    36.0730 ca         1 JUL       0.155100
     18 C25         -3.9710   -11.1110    33.8310 c3         1 JUL       0.148900
     19 C26         -5.0470   -10.9070    37.3930 ca         1 JUL      -0.176000
     20 C27         -5.6010   -10.0100    38.3240 ca         1 JUL      -0.012000
     21 N04         -6.5140    -7.7890    38.8880 nh         1 JUL      -0.807100
     22 N06         -6.7400    -5.4700    39.1160 nb         1 JUL      -0.322000
     23 N08         -6.9110    -3.1290    39.4080 nh         1 JUL      -0.782300
     24 N14         -8.4190    -4.2150    37.9360 nb         1 JUL      -0.256000
     25 N28         -5.8160   -10.4320    39.6550 ns         1 JUL      -0.143000
     26 O01         -6.4650   -10.1180    41.8200 o          1 JUL      -0.531000
     27 O11         -6.1030    -0.7200    40.8360 os         1 JUL      -0.446000
     28 O24         -4.2590   -11.4260    35.2060 os         1 JUL      -0.339100
     29 H1          -5.6750    -7.6100    40.8630 h1         1 JUL       0.087700
     30 H2          -7.4310    -7.8820    40.8360 h1         1 JUL       0.087700
     31 H3          -6.4530    -3.4370    41.4840 h1         1 JUL       0.067450
     32 H4          -5.1620    -3.9450    40.3870 h1         1 JUL       0.067450
     33 H5          -4.4710    -1.6580    39.9450 h1         1 JUL       0.052950
     34 H6          -4.6000    -1.8700    41.7060 h1         1 JUL       0.052950
     35 H7          -6.1790    -0.3940    38.7810 h1         1 JUL       0.052950
     36 H8          -7.5290     0.2960    39.7090 h1         1 JUL       0.052950
     37 H9          -8.5420    -1.8920    40.0610 h1         1 JUL       0.067450
     38 H10         -8.1650    -1.7240    38.3410 h1         1 JUL       0.067450
     39 H11         -9.0660    -8.6010    37.5520 hc         1 JUL       0.052200
     40 H12         -8.3910    -8.0160    36.0230 hc         1 JUL       0.052200
     41 H13        -11.0320    -7.1980    37.3660 hc         1 JUL       0.048700
     42 H14        -10.7540    -7.4550    35.6490 hc         1 JUL       0.048700
     43 H15         -9.7060    -5.2280    35.3980 hc         1 JUL       0.066200
     44 H16        -10.8580    -4.8690    36.6950 hc         1 JUL       0.066200
     45 H17         -5.8910    -7.2700    36.2970 ha         1 JUL       0.128000
     46 H18         -4.9280    -8.8340    34.6720 ha         1 JUL       0.123000
     47 H19         -3.5460   -11.9850    33.3230 h1         1 JUL       0.042367
     48 H20         -4.8850   -10.8190    33.2990 h1         1 JUL       0.042367
     49 H21         -3.2450   -10.2910    33.7620 h1         1 JUL       0.042367
     50 H22         -4.7980   -11.9210    37.6940 ha         1 JUL       0.134000
     51 H23         -5.6430   -11.4080    39.8550 hn         1 JUL       0.162000
@<TRIPOS>BOND
     1     1     2 1   
     2     1    25 1   
     3     1    26 2   
     4     2    21 1   
     5     2    29 1   
     6     2    30 1   
     7     3    10 ar  
     8     3    21 1   
     9     3    22 ar  
    10     4    22 ar  
    11     4    23 1   
    12     4    24 ar  
    13     5     6 1   
    14     5    23 1   
    15     5    31 1   
    16     5    32 1   
    17     6    27 1   
    18     6    33 1   
    19     6    34 1   
    20     7     8 1   
    21     7    27 1   
    22     7    35 1   
    23     7    36 1   
    24     8    23 1   
    25     8    37 1   
    26     8    38 1   
    27     9    10 ar  
    28     9    13 1   
    29     9    24 ar  
    30    10    11 1   
    31    11    12 1   
    32    11    39 1   
    33    11    40 1   
    34    12    13 1   
    35    12    41 1   
    36    12    42 1   
    37    13    43 1   
    38    13    44 1   
    39    14    15 ar  
    40    14    20 ar  
    41    14    21 1   
    42    15    16 ar  
    43    15    45 1   
    44    16    17 ar  
    45    16    46 1   
    46    17    19 ar  
    47    17    28 1   
    48    18    28 1   
    49    18    47 1   
    50    18    48 1   
    51    18    49 1   
    52    19    20 ar  
    53    19    50 1   
    54    20    25 1   
    55    25    51 1   
@<TRIPOS>SUBSTRUCTURE
     1 JUL         1 TEMP              0 ****  ****    0 ROOT
