@<TRIPOS>MOLECULE
JUL
   51    55     1     0     0
SMALL
bcc


@<TRIPOS>ATOM
      1 C02         -6.0350    -9.2650    40.6350 c          1 JUL       0.698500
      2 C03         -5.7770    -7.8450    40.1680 c6         1 JUL       0.152800
      3 C05         -7.0720    -6.5370    38.5380 ca         1 JUL       0.766200
      4 C07         -7.5400    -4.3460    39.0230 ca         1 JUL       0.956900
      5 C09         -6.2740    -3.2590    40.8370 c6         1 JUL       0.191800
      6 C10         -5.3680    -2.0460    40.7220 c6         1 JUL       0.112900
      7 C12         -6.9980    -0.8410    39.5840 c6         1 JUL       0.112900
      8 C13         -7.9740    -2.0030    39.6480 c6         1 JUL       0.191800
      9 C15         -8.7340    -5.3330    37.4010 ca         1 JUL       0.496600
     10 C16         -8.0580    -6.5330    37.5480 ca         1 JUL      -0.417900
     11 C17         -8.6360    -7.5930    36.6580 c5         1 JUL      -0.000100
     12 C18         -9.9860    -6.9780    36.2370 c5         1 JUL      -0.081400
     13 C19         -9.8010    -5.4580    36.3550 c5         1 JUL      -0.138700
     14 C20         -5.9040    -8.5780    37.8870 ca         1 JUL       0.085600
     15 C21         -5.5690    -8.2570    36.5820 ca         1 JUL      -0.090000
     16 C22         -5.1550    -9.2320    35.6840 ca         1 JUL      -0.221000
     17 C23         -5.0340   -10.5520    36.1080 ca         1 JUL       0.155100
     18 C25         -4.2880   -11.2890    33.9820 c3         1 JUL       0.125700
     19 C26         -5.3150   -10.8790    37.4360 ca         1 JUL      -0.194000
     20 C27         -5.7450    -9.9000    38.3140 ca         1 JUL       0.080600
     21 N04         -6.3270    -7.6520    38.8440 nh         1 JUL      -0.668700
     22 N06         -6.8390    -5.4540    39.2710 nb         1 JUL      -0.848000
     23 N08         -7.2420    -3.2470    39.7600 nh         1 JUL      -0.782300
     24 N14         -8.5000    -4.2340    38.0970 nb         1 JUL      -0.782000
     25 N28         -6.0320   -10.1940    39.6450 ns         1 JUL      -0.469100
     26 O01         -6.2020    -9.5490    41.8040 o          1 JUL      -0.606500
     27 O11         -6.1040    -0.8440    40.6730 os         1 JUL      -0.399600
     28 O24         -4.6380   -11.5710    35.3210 os         1 JUL      -0.315900
     29 H1          -4.6960    -7.6570    40.1970 h1         1 JUL       0.087700
     30 H2          -6.2470    -7.1590    40.8670 h1         1 JUL       0.087700
     31 H3          -6.7910    -3.2500    41.8040 h1         1 JUL       0.067450
     32 H4          -5.6780    -4.1660    40.7890 h1         1 JUL       0.067450
     33 H5          -4.7390    -2.1480    39.8260 h1         1 JUL       0.052950
     34 H6          -4.7110    -1.9920    41.5910 h1         1 JUL       0.052950
     35 H7          -6.4470    -0.8850    38.6340 h1         1 JUL       0.052950
     36 H8          -7.5450     0.1030    39.6130 h1         1 JUL       0.052950
     37 H9          -8.6400    -1.8830    40.5120 h1         1 JUL       0.067450
     38 H10         -8.5900    -2.0140    38.7530 h1         1 JUL       0.067450
     39 H11         -8.7590    -8.5550    37.1580 hc         1 JUL       0.052200
     40 H12         -8.0020    -7.7780    35.7850 hc         1 JUL       0.052200
     41 H13        -10.7630    -7.3000    36.9330 hc         1 JUL       0.048700
     42 H14        -10.2910    -7.2900    35.2400 hc         1 JUL       0.048700
     43 H15         -9.4420    -5.0210    35.4170 hc         1 JUL       0.066200
     44 H16        -10.7150    -4.9270    36.6250 hc         1 JUL       0.066200
     45 H17         -5.6410    -7.2300    36.2460 ha         1 JUL       0.146000
     46 H18         -4.9200    -8.9360    34.6720 ha         1 JUL       0.141000
     47 H19         -3.9910   -12.2340    33.5350 h1         1 JUL       0.042367
     48 H20         -5.1300   -10.8810    33.4150 h1         1 JUL       0.042367
     49 H21         -3.4500   -10.5900    33.9160 h1         1 JUL       0.042367
     50 H22         -5.1950   -11.9000    37.7770 ha         1 JUL       0.152000
     51 H23         -6.1170   -11.1650    39.9190 hn         1 JUL       0.328500
@<TRIPOS>BOND
     1     1     2 1   
     2     1    25 1   
     3     1    26 2   
     4     2    21 1   
     5     2    29 1   
     6     2    30 1   
     7     3    10 ar  
     8     3    21 1   
     9     3    22 ar  
    10     4    22 ar  
    11     4    23 1   
    12     4    24 ar  
    13     5     6 1   
    14     5    23 1   
    15     5    31 1   
    16     5    32 1   
    17     6    27 1   
    18     6    33 1   
    19     6    34 1   
    20     7     8 1   
    21     7    27 1   
    22     7    35 1   
    23     7    36 1   
    24     8    23 1   
    25     8    37 1   
    26     8    38 1   
    27     9    10 ar  
    28     9    13 1   
    29     9    24 ar  
    30    10    11 1   
    31    11    12 1   
    32    11    39 1   
    33    11    40 1   
    34    12    13 1   
    35    12    41 1   
    36    12    42 1   
    37    13    43 1   
    38    13    44 1   
    39    14    15 ar  
    40    14    20 ar  
    41    14    21 1   
    42    15    16 ar  
    43    15    45 1   
    44    16    17 ar  
    45    16    46 1   
    46    17    19 ar  
    47    17    28 1   
    48    18    28 1   
    49    18    47 1   
    50    18    48 1   
    51    18    49 1   
    52    19    20 ar  
    53    19    50 1   
    54    20    25 1   
    55    25    51 1   
@<TRIPOS>SUBSTRUCTURE
     1 JUL         1 TEMP              0 ****  ****    0 ROOT
