@<TRIPOS>MOLECULE
JUM
   38    41     1     0     0
SMALL
No Charge or Current Charge


@<TRIPOS>ATOM
      1 C10          2.0790     0.2680    -0.6560 c6         1 JUM       0.172200
      2 C13         -2.4430     1.3470     0.5250 ca         1 JUM      -0.126000
      3 C20         -0.3960     2.5520    -0.1750 cc         1 JUM      -0.169000
      4 C21          0.3740     2.7760    -1.2780 cd         1 JUM      -0.153000
      5 C24         -0.5890     3.8060     0.4290 cc         1 JUM       0.257900
      6 C02          5.2830    -1.6010     0.7350 c3         1 JUM       0.083600
      7 C06          3.1280    -1.8780    -1.3390 c6         1 JUM       0.107000
      8 C07          1.9080    -2.7470    -0.9620 c6         1 JUM      -0.044200
      9 C08          0.7170    -1.8550    -0.7210 cc         1 JUM      -0.061300
     10 C09          0.7470    -0.4710    -0.5940 cd         1 JUM      -0.150400
     11 C11         -0.5870     0.0110    -0.2450 ca         1 JUM      -0.067800
     12 C12         -1.1180     1.2950     0.0320 ca         1 JUM       0.076000
     13 C14         -3.2200     0.1770     0.6720 ca         1 JUM       0.146000
     14 C16         -2.6780    -1.0830     0.3380 ca         1 JUM       0.090000
     15 C18         -1.3520    -1.1250    -0.1130 ca         1 JUM      -0.033200
     16 N05          3.2080    -0.6830    -0.4550 n          1 JUM      -0.422800
     17 N19         -0.5970    -2.2420    -0.4290 na         1 JUM      -0.202700
     18 N22          0.7080     4.1360    -1.2100 na         1 JUM       0.000800
     19 N23          0.0880     4.7830    -0.1390 nd         1 JUM      -0.515800
     20 O01          6.2030    -1.3610     1.8300 oh         1 JUM      -0.619000
     21 O04          4.1450     0.4920     1.2790 o          1 JUM      -0.555100
     22 Cl1         -4.8740     0.3210     1.2660 cl         1 JUM      -0.176000
     23 Cl2         -3.6120    -2.5730     0.5120 cl         1 JUM      -0.180000
     24 H1           2.2060     0.7380    -1.6400 h1         1 JUM       0.069700
     25 H2           2.0950     1.0660     0.0990 h1         1 JUM       0.069700
     26 H3          -2.8950     2.3050     0.7650 ha         1 JUM       0.135000
     27 H4           0.6550     2.1360    -2.1060 h4         1 JUM       0.157000
     28 H5          -1.2190     4.0340     1.2790 h4         1 JUM       0.043100
     29 H6           4.7730    -2.5620     0.8810 h1         1 JUM       0.029700
     30 H7           5.8360    -1.6610    -0.2120 h1         1 JUM       0.029700
     31 H8           4.0440    -2.4830    -1.3120 h1         1 JUM       0.053700
     32 H9           3.0100    -1.5330    -2.3760 h1         1 JUM       0.053700
     33 H10          1.7090    -3.4780    -1.7570 hc         1 JUM       0.059700
     34 H11          2.1370    -3.3210    -0.0540 hc         1 JUM       0.059700
     35 H12         -0.9370    -3.1980    -0.4040 hn         1 JUM       0.361000
     36 H13          1.2960     4.6440    -1.8700 hn         1 JUM       0.374000
     37 H14          6.8480    -2.1040     1.8410 ho         1 JUM       0.443000
     38 C03          4.1780    -0.5050     0.5630 c          1 JUM       0.603100
@<TRIPOS>BOND
     1     1    10 1   
     2     1    16 1   
     3     1    24 1   
     4     1    25 1   
     5     2    12 ar  
     6     2    13 ar  
     7     2    26 1   
     8     3     4 2   
     9     3     5 1   
    10     3    12 1   
    11     4    18 1   
    12     4    27 1   
    13     5    19 2   
    14     5    28 1   
    15     6    20 1   
    16     6    29 1   
    17     6    30 1   
    18     6    38 1   
    19     7     8 1   
    20     7    16 1   
    21     7    31 1   
    22     7    32 1   
    23     8     9 1   
    24     8    33 1   
    25     8    34 1   
    26     9    10 2   
    27     9    17 1   
    28    10    11 1   
    29    11    12 ar  
    30    11    15 ar  
    31    13    14 ar  
    32    13    22 1   
    33    14    15 ar  
    34    14    23 1   
    35    15    17 1   
    36    16    38 1   
    37    17    35 1   
    38    18    19 1   
    39    18    36 1   
    40    20    37 1   
    41    21    38 2   
@<TRIPOS>SUBSTRUCTURE
     1 JUM         1 TEMP              0 ****  ****    0 ROOT
