@<TRIPOS>MOLECULE
JUM
   38    41     1     0     0
SMALL
bcc


@<TRIPOS>ATOM
      1 C10          2.0790     0.2600    -0.6190 c6         1 JUM       0.172200
      2 C13         -2.5000     1.3030     0.2470 ca         1 JUM      -0.144000
      3 C20         -0.4170     2.5090    -0.2480 cc         1 JUM      -0.234300
      4 C21          0.3650     2.9100    -1.3130 cd         1 JUM      -0.120300
      5 C24         -0.3970     3.6220     0.6190 cc         1 JUM       0.323200
      6 C02          5.2170    -1.5560     0.5470 c3         1 JUM       0.060400
      7 C06          3.0260    -1.9000    -1.2550 c6         1 JUM       0.107000
      8 C07          1.8850    -2.7460    -0.6940 c6         1 JUM      -0.044200
      9 C08          0.7280    -1.8420    -0.4690 cc         1 JUM      -0.061300
     10 C09          0.7840    -0.4770    -0.4590 cd         1 JUM      -0.150400
     11 C11         -0.5480    -0.0080    -0.2160 ca         1 JUM      -0.067800
     12 C12         -1.1510     1.2550    -0.0730 ca         1 JUM       0.076000
     13 C14         -3.2640     0.1430     0.4030 ca         1 JUM       0.054400
     14 C16         -2.7010    -1.1070     0.2370 ca         1 JUM      -0.001600
     15 C18         -1.3460    -1.1680    -0.0670 ca         1 JUM      -0.033200
     16 N05          3.1830    -0.6780    -0.4880 n          1 JUM      -0.489800
     17 N19         -0.5520    -2.2570    -0.2350 na         1 JUM      -0.152400
     18 N22          0.7820     4.1520    -1.0310 na         1 JUM       0.000400
     19 N23          0.3370     4.6040     0.1340 nd         1 JUM      -0.515800
     20 O01          6.1210    -1.1670     1.5370 oh         1 JUM      -0.556800
     21 O04          4.2340     0.5480     1.0940 o          1 JUM      -0.555100
     22 CL1         -4.9390     0.2900     0.7890 cl         1 JUM      -0.084400
     23 CL2         -3.6030    -2.5620     0.4060 cl         1 JUM      -0.088400
     24 H1           2.1420     0.7520    -1.5950 h1         1 JUM       0.069700
     25 H2           2.1850     1.0360     0.1350 h1         1 JUM       0.069700
     26 H3          -2.9870     2.2630     0.3580 ha         1 JUM       0.153000
     27 H4           0.6210     2.4200    -2.2380 h4         1 JUM       0.175000
     28 H5          -0.8820     3.7180     1.5790 h4         1 JUM       0.043100
     29 H6           4.7230    -2.5070     0.7890 h1         1 JUM       0.029700
     30 H7           5.7080    -1.6980    -0.4260 h1         1 JUM       0.029700
     31 H8           3.9500    -2.4700    -1.2810 h1         1 JUM       0.053700
     32 H9           2.8040    -1.6250    -2.2890 h1         1 JUM       0.053700
     33 H10          1.6350    -3.5450    -1.3960 hc         1 JUM       0.059700
     34 H11          2.1890    -3.2270     0.2400 hc         1 JUM       0.059700
     35 H12         -0.8510    -3.2170    -0.1710 hn         1 JUM       0.310700
     36 H13          1.3710     4.7340    -1.6050 hn         1 JUM       0.323700
     37 H14          6.7620    -1.8770     1.6370 ho         1 JUM       0.404000
     38 C03          4.1650    -0.4630     0.4160 c          1 JUM       0.670100
@<TRIPOS>BOND
     1     1    10 1   
     2     1    16 1   
     3     1    24 1   
     4     1    25 1   
     5     2    12 ar  
     6     2    13 ar  
     7     2    26 1   
     8     3     4 2   
     9     3     5 1   
    10     3    12 1   
    11     4    18 1   
    12     4    27 1   
    13     5    19 2   
    14     5    28 1   
    15     6    20 1   
    16     6    29 1   
    17     6    30 1   
    18     6    38 1   
    19     7     8 1   
    20     7    16 1   
    21     7    31 1   
    22     7    32 1   
    23     8     9 1   
    24     8    33 1   
    25     8    34 1   
    26     9    10 2   
    27     9    17 1   
    28    10    11 1   
    29    11    12 ar  
    30    11    15 ar  
    31    13    14 ar  
    32    13    22 1   
    33    14    15 ar  
    34    14    23 1   
    35    15    17 1   
    36    16    38 1   
    37    17    35 1   
    38    18    19 1   
    39    18    36 1   
    40    20    37 1   
    41    21    38 2   
@<TRIPOS>SUBSTRUCTURE
     1 JUM         1 TEMP              0 ****  ****    0 ROOT
