@<TRIPOS>MOLECULE
JUN
   55    56     1     0     0
SMALL
No Charge or Current Charge


@<TRIPOS>ATOM
      1 C1          -4.9590     5.1760     0.3660 c3         1 JUN      -0.071100
      2 C2          -4.3900     3.7360     0.3480 c3         1 JUN      -0.292400
      3 O4          -6.5130     2.5070     1.3260 o          1 JUN      -0.519000
      4 O5          -6.2250     2.6540    -1.2130 o          1 JUN      -0.519000
      5 C7          -4.4660     0.2640     1.3660 ca         1 JUN      -0.015500
      6 C8          -3.7140    -0.9240     1.3800 ca         1 JUN      -0.108500
      7 C9          -3.1940    -1.4550     0.1830 ca         1 JUN      -0.057300
      8 C10         -3.4390    -0.7830    -1.0310 ca         1 JUN      -0.108500
      9 C11         -4.1900     0.4050    -1.0510 ca         1 JUN      -0.015500
     10 C12         -2.3670    -2.7400     0.2050 c3         1 JUN       0.081000
     11 C16         -4.5920    -5.5670    -1.1980 c3         1 JUN      -0.176100
     12 C20          1.0940    -1.0280     0.4370 ca         1 JUN       0.003000
     13 C21          1.4440    -0.0230     1.3520 ca         1 JUN      -0.149500
     14 C22          2.7280     0.5460     1.3420 ca         1 JUN      -0.046500
     15 C24          3.3470    -0.8880    -0.5080 ca         1 JUN      -0.046500
     16 C32          6.2710    -0.1040    -0.2100 c3         1 JUN       0.305000
     17 S3          -5.6610     2.4660     0.1300 sy         1 JUN       1.041500
     18 C6          -4.7080     0.9330     0.1490 ca         1 JUN      -0.257500
     19 N13         -3.0150    -3.8030    -0.5960 ns         1 JUN      -0.509900
     20 O15         -4.6280    -4.3840     0.9030 o          1 JUN      -0.595100
     21 C17         -0.9120    -2.4740    -0.2760 c          1 JUN       0.603100
     22 O18         -0.4410    -3.0190    -1.2720 o          1 JUN      -0.574100
     23 N19         -0.2250    -1.5550     0.5080 ns         1 JUN      -0.137000
     24 C23          3.7130     0.1190     0.4190 ca         1 JUN      -0.179300
     25 C25          2.0600    -1.4550    -0.4950 ca         1 JUN      -0.149500
     26 C26          5.1220     0.7890     0.4280 c3         1 JUN       0.113300
     27 O27          5.4690     0.9930     1.8210 oh         1 JUN      -0.621000
     28 C28          5.0330     2.1970    -0.2850 c3         1 JUN       0.305000
     29 F29          4.5910     2.0810    -1.5600 f          1 JUN      -0.097500
     30 F30          4.1740     3.0260     0.3560 f          1 JUN      -0.097500
     31 F31          6.2320     2.8250    -0.3250 f          1 JUN      -0.097500
     32 F33          6.1830    -0.1860    -1.5580 f          1 JUN      -0.097500
     33 F34          7.5010     0.3900     0.0730 f          1 JUN      -0.097500
     34 F35          6.2350    -1.3650     0.2820 f          1 JUN      -0.097500
     35 H1          -4.1500     5.9040     0.5000 hc         1 JUN       0.054700
     36 H2          -5.4720     5.4080    -0.5750 hc         1 JUN       0.054700
     37 H3          -5.6720     5.3060     1.1900 hc         1 JUN       0.054700
     38 H4          -3.6780     3.6190    -0.4770 h1         1 JUN       0.093700
     39 H5          -3.8790     3.5170     1.2920 h1         1 JUN       0.093700
     40 H6          -4.8550     0.6580     2.3040 ha         1 JUN       0.140500
     41 H7          -3.5380    -1.4310     2.3260 ha         1 JUN       0.124500
     42 H8          -3.0470    -1.1800    -1.9650 ha         1 JUN       0.124500
     43 H9          -4.3640     0.9100    -2.0010 ha         1 JUN       0.140500
     44 H10         -2.2840    -3.0950     1.2410 h1         1 JUN       0.084700
     45 H11         -5.4560    -6.1350    -0.8350 hc         1 JUN       0.065033
     46 H12         -4.8100    -5.0600    -2.1450 hc         1 JUN       0.065033
     47 H13         -3.7600    -6.2250    -1.4710 hc         1 JUN       0.065033
     48 H14          0.7150     0.3300     2.0780 ha         1 JUN       0.136000
     49 H15          2.9490     1.3320     2.0620 ha         1 JUN       0.132000
     50 H16          4.0420    -1.2510    -1.2570 ha         1 JUN       0.132000
     51 H17         -2.6290    -4.0220    -1.5090 hn         1 JUN       0.342500
     52 H18         -0.7690    -1.1820     1.2760 hn         1 JUN       0.160000
     53 H19          1.8390    -2.2280    -1.2230 ha         1 JUN       0.136000
     54 H20          5.3140     0.1410     2.2850 ho         1 JUN       0.479000
     55 C14         -4.1010    -4.5390    -0.1890 c          1 JUN       0.606100
@<TRIPOS>BOND
     1     1     2 1   
     2     1    35 1   
     3     1    36 1   
     4     1    37 1   
     5     2    17 1   
     6     2    38 1   
     7     2    39 1   
     8     3    17 2   
     9     4    17 2   
    10     5     6 ar  
    11     5    18 ar  
    12     5    40 1   
    13     6     7 ar  
    14     6    41 1   
    15     7     8 ar  
    16     7    10 1   
    17     8     9 ar  
    18     8    42 1   
    19     9    18 ar  
    20     9    43 1   
    21    10    19 1   
    22    10    21 1   
    23    10    44 1   
    24    11    45 1   
    25    11    46 1   
    26    11    47 1   
    27    11    55 1   
    28    12    13 ar  
    29    12    23 1   
    30    12    25 ar  
    31    13    14 ar  
    32    13    48 1   
    33    14    24 ar  
    34    14    49 1   
    35    15    24 ar  
    36    15    25 ar  
    37    15    50 1   
    38    16    26 1   
    39    16    32 1   
    40    16    33 1   
    41    16    34 1   
    42    17    18 1   
    43    19    51 1   
    44    19    55 1   
    45    20    55 2   
    46    21    22 2   
    47    21    23 1   
    48    23    52 1   
    49    24    26 1   
    50    25    53 1   
    51    26    27 1   
    52    26    28 1   
    53    27    54 1   
    54    28    29 1   
    55    28    30 1   
    56    28    31 1   
@<TRIPOS>SUBSTRUCTURE
     1 JUN         1 TEMP              0 ****  ****    0 ROOT
