@<TRIPOS>MOLECULE
JUN
   55    56     1     0     0
SMALL
bcc


@<TRIPOS>ATOM
      1 C1          -5.0060     5.0930    -0.2030 c3         1 JUN      -0.071100
      2 C2          -4.3670     3.7200    -0.0840 c3         1 JUN      -0.181600
      3 O4          -6.3280     2.6380     1.3250 o          1 JUN      -0.589800
      4 O5          -6.4050     2.4380    -1.1810 o          1 JUN      -0.589800
      5 C7          -4.3090     0.4490     1.3790 ca         1 JUN      -0.033500
      6 C8          -3.5640    -0.7190     1.4300 ca         1 JUN      -0.126500
      7 C9          -3.2040    -1.3800     0.2620 ca         1 JUN      -0.057300
      8 C10         -3.6090    -0.8720    -0.9680 ca         1 JUN      -0.126500
      9 C11         -4.3570     0.2900    -1.0340 ca         1 JUN      -0.033500
     10 C12         -2.3430    -2.6270     0.3180 c3         1 JUN       0.081000
     11 C16         -4.3670    -5.4630    -1.1140 c3         1 JUN      -0.176100
     12 C20          1.0860    -1.0660     0.5790 ca         1 JUN       0.095600
     13 C21          1.7410    -0.6710     1.7430 ca         1 JUN      -0.167500
     14 C22          3.0130    -0.1350     1.6940 ca         1 JUN      -0.064500
     15 C24          3.0090    -0.3530    -0.6800 ca         1 JUN      -0.064500
     16 C32          6.0180    -0.0400    -0.5480 c3         1 JUN       0.668900
     17 S3          -5.6260     2.4520     0.0560 sy         1 JUN       1.072300
     18 C6          -4.6940     0.9450     0.1430 ca         1 JUN      -0.257500
     19 N13         -2.8480    -3.6920    -0.4960 ns         1 JUN      -0.576900
     20 O15         -4.5530    -4.1630     0.8910 o          1 JUN      -0.595100
     21 C17         -0.9460    -2.2560    -0.1910 c          1 JUN       0.670100
     22 O18         -0.5990    -2.5150    -1.3250 o          1 JUN      -0.574100
     23 N19         -0.1990    -1.5950     0.7210 ns         1 JUN      -0.463100
     24 C23          3.6800     0.0190     0.4810 ca         1 JUN      -0.179300
     25 C25          1.7340    -0.8940    -0.6420 ca         1 JUN      -0.167500
     26 C26          5.0790     0.6220     0.4970 c3         1 JUN       0.090100
     27 O27          5.6970     0.5020     1.7380 oh         1 JUN      -0.558800
     28 C28          4.9630     2.1470     0.2760 c3         1 JUN       0.668900
     29 F29          4.3540     2.4310    -0.8730 f          1 JUN      -0.218800
     30 F30          4.2470     2.6890     1.2580 f          1 JUN      -0.218800
     31 F31          6.1510     2.7510     0.2670 f          1 JUN      -0.218800
     32 F33          5.7000     0.2430    -1.8130 f          1 JUN      -0.218800
     33 F34          7.2820     0.3330    -0.3720 f          1 JUN      -0.218800
     34 F35          5.9700    -1.3650    -0.4020 f          1 JUN      -0.218800
     35 H1          -4.2190     5.8390    -0.2900 hc         1 JUN       0.054700
     36 H2          -5.6360     5.1680    -1.0870 hc         1 JUN       0.054700
     37 H3          -5.6010     5.3370     0.6750 hc         1 JUN       0.054700
     38 H4          -3.7630     3.4760    -0.9590 h1         1 JUN       0.093700
     39 H5          -3.7350     3.6380     0.8010 h1         1 JUN       0.093700
     40 H6          -4.5880     0.9490     2.2970 ha         1 JUN       0.158500
     41 H7          -3.2780    -1.1210     2.3940 ha         1 JUN       0.142500
     42 H8          -3.3500    -1.3830    -1.8860 ha         1 JUN       0.142500
     43 H9          -4.6680     0.6750    -1.9950 ha         1 JUN       0.158500
     44 H10         -2.2740    -2.9640     1.3570 h1         1 JUN       0.084700
     45 H11         -4.4400    -6.4160    -0.5930 hc         1 JUN       0.065033
     46 H12         -5.3570    -5.2270    -1.5050 hc         1 JUN       0.065033
     47 H13         -3.6870    -5.5780    -1.9560 hc         1 JUN       0.065033
     48 H14          1.2570    -0.7830     2.7050 ha         1 JUN       0.154000
     49 H15          3.4680     0.1620     2.6280 ha         1 JUN       0.150000
     50 H16          3.4520    -0.2320    -1.6560 ha         1 JUN       0.150000
     51 H17         -2.3710    -3.8890    -1.3620 hn         1 JUN       0.342500
     52 H18         -0.5830    -1.5210     1.6510 hn         1 JUN       0.326500
     53 H19          1.2630    -1.1650    -1.5720 ha         1 JUN       0.154000
     54 H20          5.6080    -0.4010     2.0660 ho         1 JUN       0.440000
     55 C14         -3.9470    -4.3900    -0.1440 c          1 JUN       0.673100
@<TRIPOS>BOND
     1     1     2 1   
     2     1    35 1   
     3     1    36 1   
     4     1    37 1   
     5     2    17 1   
     6     2    38 1   
     7     2    39 1   
     8     3    17 2   
     9     4    17 2   
    10     5     6 ar  
    11     5    18 ar  
    12     5    40 1   
    13     6     7 ar  
    14     6    41 1   
    15     7     8 ar  
    16     7    10 1   
    17     8     9 ar  
    18     8    42 1   
    19     9    18 ar  
    20     9    43 1   
    21    10    19 1   
    22    10    21 1   
    23    10    44 1   
    24    11    45 1   
    25    11    46 1   
    26    11    47 1   
    27    11    55 1   
    28    12    13 ar  
    29    12    23 1   
    30    12    25 ar  
    31    13    14 ar  
    32    13    48 1   
    33    14    24 ar  
    34    14    49 1   
    35    15    24 ar  
    36    15    25 ar  
    37    15    50 1   
    38    16    26 1   
    39    16    32 1   
    40    16    33 1   
    41    16    34 1   
    42    17    18 1   
    43    19    51 1   
    44    19    55 1   
    45    20    55 2   
    46    21    22 2   
    47    21    23 1   
    48    23    52 1   
    49    24    26 1   
    50    25    53 1   
    51    26    27 1   
    52    26    28 1   
    53    27    54 1   
    54    28    29 1   
    55    28    30 1   
    56    28    31 1   
@<TRIPOS>SUBSTRUCTURE
     1 JUN         1 TEMP              0 ****  ****    0 ROOT
