@<TRIPOS>MOLECULE
JUO
   30    32     1     0     0
SMALL
abcg2


@<TRIPOS>ATOM
      1 N1          -0.9280    -1.7540     0.5950 nb         1 JUO      -0.341000
      2 C2          -2.2570    -1.9340     0.6260 ca         1 JUO       0.428900
      3 N3          -3.1760    -1.0740     0.2040 nb         1 JUO      -0.291000
      4 C4          -2.6540     0.0780    -0.1930 ca         1 JUO       0.180500
      5 C5          -1.2980     0.4220    -0.2390 ca         1 JUO      -0.242800
      6 C6          -0.4170    -0.6190     0.1450 ca         1 JUO       0.460900
      7 NAA          0.6920     3.4700    -0.7550 n1         1 JUO      -0.475000
      8 NAB         -2.6860    -3.1030     1.1520 nv         1 JUO      -1.055900
      9 CAC         -0.1780     2.7120    -0.6930 cg         1 JUO       0.323700
     10 CAD         -2.5600     2.2100    -0.8190 cd         1 JUO      -0.129100
     11 CAE          3.0490    -0.9370     1.2900 c6         1 JUO       0.052100
     12 CAF          2.8490     0.8100    -0.7680 c6         1 JUO       0.052100
     13 CAG          1.7420    -1.5160     0.7780 c6         1 JUO       0.209300
     14 CAH          1.5770     0.0510    -1.0870 c6         1 JUO       0.209300
     15 NAK         -3.3820     1.1630    -0.5750 na         1 JUO      -0.313400
     16 SAL          4.0960    -0.2810    -0.0340 ss         1 JUO      -0.438000
     17 CAN         -1.2600     1.8130    -0.6220 cc         1 JUO      -0.016900
     18 NAR          0.9440    -0.5020     0.1050 nh         1 JUO      -0.766300
     19 HNAB        -2.0210    -3.8470     1.2640 hn         1 JUO       0.492000
     20 HNAA        -3.6430    -3.3730     1.0000 hn         1 JUO       0.492000
     21 HAD         -2.9420     3.1760    -1.1030 h4         1 JUO       0.229000
     22 HAE          2.8540    -0.1520     2.0250 h1         1 JUO       0.081450
     23 HAEA         3.6220    -1.7220     1.7840 h1         1 JUO       0.081450
     24 HAF          3.2760     1.2110    -1.6860 h1         1 JUO       0.081450
     25 HAFA         2.6450     1.6430    -0.0950 h1         1 JUO       0.081450
     26 HAG          1.9450    -2.3630     0.1110 h1         1 JUO       0.061200
     27 HAGA         1.1800    -1.8980     1.6270 h1         1 JUO       0.061200
     28 HAH          0.8830     0.7030    -1.6100 h1         1 JUO       0.061200
     29 HAHA         1.8090    -0.7660    -1.7820 h1         1 JUO       0.061200
     30 HNAK        -4.3890     1.1940    -0.6220 hn         1 JUO       0.367000
@<TRIPOS>BOND
     1     1     2 ar  
     2     1     6 ar  
     3     2     3 ar  
     4     2     8 1   
     5     3     4 ar  
     6     4     5 ar  
     7     4    15 1   
     8     5     6 ar  
     9     5    17 1   
    10     6    18 1   
    11     7     9 3   
    12     8    19 1   
    13     8    20 1   
    14     9    17 1   
    15    10    15 1   
    16    10    17 2   
    17    10    21 1   
    18    11    13 1   
    19    11    16 1   
    20    11    22 1   
    21    11    23 1   
    22    12    14 1   
    23    12    16 1   
    24    12    24 1   
    25    12    25 1   
    26    13    18 1   
    27    13    26 1   
    28    13    27 1   
    29    14    18 1   
    30    14    28 1   
    31    14    29 1   
    32    15    30 1   
@<TRIPOS>SUBSTRUCTURE
     1 JUO         1 TEMP              0 ****  ****    0 ROOT
