@<TRIPOS>MOLECULE
JUO
   30    32     1     0     0
SMALL
No Charge or Current Charge


@<TRIPOS>ATOM
      1 N1          -0.9350    -1.8870     0.2960 nb         1 JUO      -0.341000
      2 C2          -2.2650    -2.0500     0.2730 ca         1 JUO       0.428900
      3 N3          -3.2110    -1.1140     0.0990 nb         1 JUO      -0.291000
      4 C4          -2.7590     0.1410    -0.0640 ca         1 JUO       0.180500
      5 C5          -1.4150     0.4210    -0.0510 ca         1 JUO      -0.242800
      6 C6          -0.4930    -0.6250     0.1290 ca         1 JUO       0.460900
      7 NAA          0.9070     3.2930    -0.2160 n1         1 JUO      -0.475000
      8 NAB         -2.7030    -3.3170     0.4380 nv         1 JUO      -1.055900
      9 CAC         -0.0470     2.6190    -0.2180 cg         1 JUO       0.323700
     10 CAD         -2.5240     2.3640    -0.3480 cd         1 JUO      -0.129100
     11 CAE          3.0610    -0.4080     1.4360 c6         1 JUO       0.052100
     12 CAF          2.8970     0.4060    -1.2190 c6         1 JUO       0.052100
     13 CAG          1.7250    -1.1390     1.1460 c6         1 JUO       0.209300
     14 CAH          1.5570    -0.3800    -1.2270 c6         1 JUO       0.209300
     15 NAK         -3.4680     1.3120    -0.2560 na         1 JUO      -0.313400
     16 SAL          4.1660    -0.2720    -0.0480 ss         1 JUO      -0.438000
     17 CAN         -1.2440     1.8420    -0.2200 cc         1 JUO      -0.016900
     18 NAR          0.9010    -0.4360     0.1150 nh         1 JUO      -0.766300
     19 HNAB        -2.0290    -4.0700     0.3350 hn         1 JUO       0.492000
     20 HNAA        -3.6670    -3.5290     0.1930 hn         1 JUO       0.492000
     21 HAD         -2.8250     3.4000    -0.4830 h4         1 JUO       0.229000
     22 HAE          2.8450     0.6070     1.7970 h1         1 JUO       0.081450
     23 HAEA         3.6080    -0.9380     2.2270 h1         1 JUO       0.081450
     24 HAF          3.3270     0.4080    -2.2300 h1         1 JUO       0.081450
     25 HAFA         2.7040     1.4490    -0.9380 h1         1 JUO       0.081450
     26 HAG          1.9430    -2.1690     0.8240 h1         1 JUO       0.061200
     27 HAGA         1.1650    -1.2080     2.0900 h1         1 JUO       0.061200
     28 HAH          0.8850     0.1010    -1.9530 h1         1 JUO       0.061200
     29 HAHA         1.7460    -1.3990    -1.5940 h1         1 JUO       0.061200
     30 HNAK        -4.4790     1.3930    -0.3100 hn         1 JUO       0.367000
@<TRIPOS>BOND
     1     1     2 ar  
     2     1     6 ar  
     3     2     3 ar  
     4     2     8 1   
     5     3     4 ar  
     6     4     5 ar  
     7     4    15 1   
     8     5     6 ar  
     9     5    17 1   
    10     6    18 1   
    11     7     9 3   
    12     8    19 1   
    13     8    20 1   
    14     9    17 1   
    15    10    15 1   
    16    10    17 2   
    17    10    21 1   
    18    11    13 1   
    19    11    16 1   
    20    11    22 1   
    21    11    23 1   
    22    12    14 1   
    23    12    16 1   
    24    12    24 1   
    25    12    25 1   
    26    13    18 1   
    27    13    26 1   
    28    13    27 1   
    29    14    18 1   
    30    14    28 1   
    31    14    29 1   
    32    15    30 1   
@<TRIPOS>SUBSTRUCTURE
     1 JUO         1 TEMP              0 ****  ****    0 ROOT
