@<TRIPOS>MOLECULE
JUP
   65    68     1     0     0
SMALL
abcg2


@<TRIPOS>ATOM
      1 C01          1.4860   -11.5600    16.1890 c3         1 JUP      -0.090100
      2 C02          1.8230   -10.8700    14.8750 c3         1 JUP       0.222600
      3 O03          3.0200   -10.1130    15.1510 os         1 JUP      -0.384100
      4 C04          3.5430    -9.2590    14.2300 ca         1 JUP       0.171100
      5 C05          2.8660    -8.9330    13.0590 ca         1 JUP      -0.198000
      6 C06          3.4090    -8.0500    12.1260 cp         1 JUP       0.033000
      7 C07          2.6640    -7.7800    10.8760 cp         1 JUP      -0.162000
      8 C08          2.1370    -8.8310    10.1440 ca         1 JUP      -0.015000
      9 C09          1.4220    -8.6150     8.9600 ca         1 JUP      -0.119000
     10 C10          0.8650    -9.7040     8.1640 cc         1 JUP      -0.125000
     11 C11          0.5240    -9.7070     6.8340 cd         1 JUP      -0.109000
     12 C12         -0.0160   -10.9460     6.3800 cd         1 JUP      -0.094300
     13 C13         -0.4530   -11.1970     4.9660 c3         1 JUP       0.227100
     14 N14         -1.4620   -10.2400     4.5100 n3         1 JUP      -0.714600
     15 C15         -1.6990   -10.3840     3.0800 c3         1 JUP       0.148100
     16 C16         -2.7040   -10.3660     5.2600 c3         1 JUP       0.148100
     17 C17         -0.0750   -11.8750     7.3800 cc         1 JUP      -0.236000
     18 S18          0.5170   -11.2560     8.8740 ss         1 JUP       0.160000
     19 C19          1.2630    -7.2820     8.5770 ca         1 JUP       0.410900
     20 N20          1.7460    -6.2480     9.2590 nb         1 JUP      -0.746000
     21 C21          2.4360    -6.4670    10.3870 ca         1 JUP       0.617900
     22 N22          2.9100    -5.3560    11.0290 nv         1 JUP      -1.056900
     23 C23          4.6580    -7.4820    12.3870 ca         1 JUP      -0.154000
     24 C24          5.3260    -7.8000    13.5550 ca         1 JUP      -0.030000
     25 C25          4.8030    -8.6860    14.5010 ca         1 JUP      -0.183600
     26 C26          5.6520    -8.9350    15.7160 c          1 JUP       0.617700
     27 N27          5.2500    -9.8670    16.5990 nt         1 JUP      -0.602000
     28 O28          6.6990    -8.3020    15.8850 o          1 JUP      -0.628100
     29 C29          2.0590   -11.8720    13.7570 ca         1 JUP      -0.074300
     30 C30          3.3080   -12.4820    13.6680 ca         1 JUP      -0.098000
     31 C31          3.5800   -13.4330    12.6930 ca         1 JUP      -0.076000
     32 C32          2.5930   -13.8010    11.7880 ca         1 JUP      -0.106000
     33 C33          1.3410   -13.2100    11.8640 ca         1 JUP      -0.065000
     34 C34          1.0690   -12.2490    12.8360 ca         1 JUP      -0.180300
     35 C35         -0.2970   -11.6170    12.8500 c3         1 JUP       0.340300
     36 F36         -0.8990   -11.7000    14.0620 f          1 JUP      -0.112000
     37 F37         -0.2550   -10.2930    12.5430 f          1 JUP      -0.112000
     38 F38         -1.1440   -12.1780    11.9680 f          1 JUP      -0.112000
     39 H011         0.5850   -12.1600    16.0730 hc         1 JUP       0.057033
     40 H012         2.3060   -12.2160    16.4860 hc         1 JUP       0.057033
     41 H013         1.3200   -10.8160    16.9680 hc         1 JUP       0.057033
     42 H02          1.0320   -10.1690    14.6180 h1         1 JUP       0.069700
     43 H05          1.8950    -9.3540    12.8610 ha         1 JUP       0.130000
     44 H23          5.1150    -6.8120    11.6720 ha         1 JUP       0.133000
     45 H08          2.3110    -9.8420    10.4920 ha         1 JUP       0.122000
     46 H19          0.7020    -7.0390     7.6820 h4         1 JUP       0.025100
     47 H11          0.6630    -8.8540     6.1860 ha         1 JUP       0.144000
     48 H131         0.4090   -11.1020     4.2990 h1         1 JUP       0.039200
     49 H132        -0.8160   -12.2350     4.8780 h1         1 JUP       0.039200
     50 H17         -0.4390   -12.8890     7.3200 h4         1 JUP       0.147000
     51 H151        -2.4170    -9.6330     2.7500 h1         1 JUP       0.032200
     52 H152        -0.7660   -10.2380     2.5340 h1         1 JUP       0.032200
     53 H153        -2.0990   -11.3790     2.8180 h1         1 JUP       0.032200
     54 H161        -3.4150    -9.6120     4.9180 h1         1 JUP       0.032200
     55 H162        -3.1690   -11.3600     5.1340 h1         1 JUP       0.032200
     56 H163        -2.5190   -10.2110     6.3220 h1         1 JUP       0.032200
     57 H221         2.4890    -4.4820    10.7540 hn         1 JUP       0.481000
     58 H222         3.1550    -5.4310    12.0030 hn         1 JUP       0.481000
     59 H24          6.2960    -7.3700    13.7600 ha         1 JUP       0.146000
     60 H271         5.8230   -10.0360    17.4100 hn         1 JUP       0.324500
     61 H272         4.3870   -10.3700    16.4720 hn         1 JUP       0.324500
     62 H30          4.0810   -12.1970    14.3690 ha         1 JUP       0.131000
     63 H31          4.5620   -13.8860    12.6450 ha         1 JUP       0.125000
     64 H32          2.7940   -14.5410    11.0250 ha         1 JUP       0.126000
     65 H33          0.5720   -13.4910    11.1600 ha         1 JUP       0.134000
@<TRIPOS>BOND
     1     1     2 1   
     2     1    39 1   
     3     1    40 1   
     4     1    41 1   
     5     2     3 1   
     6     2    29 1   
     7     2    42 1   
     8     3     4 1   
     9     4     5 ar  
    10     4    25 ar  
    11     5     6 ar  
    12     5    43 1   
    13     6     7 1   
    14     6    23 ar  
    15     7     8 ar  
    16     7    21 ar  
    17     8     9 ar  
    18     8    45 1   
    19     9    10 1   
    20     9    19 ar  
    21    10    11 2   
    22    10    18 1   
    23    11    12 1   
    24    11    47 1   
    25    12    13 1   
    26    12    17 2   
    27    13    14 1   
    28    13    48 1   
    29    13    49 1   
    30    14    15 1   
    31    14    16 1   
    32    15    51 1   
    33    15    52 1   
    34    15    53 1   
    35    16    54 1   
    36    16    55 1   
    37    16    56 1   
    38    17    18 1   
    39    17    50 1   
    40    19    20 ar  
    41    19    46 1   
    42    20    21 ar  
    43    21    22 1   
    44    22    57 1   
    45    22    58 1   
    46    23    24 ar  
    47    23    44 1   
    48    24    25 ar  
    49    24    59 1   
    50    25    26 1   
    51    26    27 1   
    52    26    28 2   
    53    27    60 1   
    54    27    61 1   
    55    29    30 ar  
    56    29    34 ar  
    57    30    31 ar  
    58    30    62 1   
    59    31    32 ar  
    60    31    63 1   
    61    32    33 ar  
    62    32    64 1   
    63    33    34 ar  
    64    33    65 1   
    65    34    35 1   
    66    35    36 1   
    67    35    37 1   
    68    35    38 1   
@<TRIPOS>SUBSTRUCTURE
     1 JUP         1 TEMP              0 ****  ****    0 ROOT
