@<TRIPOS>MOLECULE
JUP
   65    68     1     0     0
SMALL
No Charge or Current Charge


@<TRIPOS>ATOM
      1 C01          1.5210   -11.6300    16.2960 c3         1 JUP      -0.090100
      2 C02          1.8280   -10.9180    14.9660 c3         1 JUP       0.222600
      3 O03          2.9820   -10.0850    15.2230 os         1 JUP      -0.384100
      4 C04          3.5440    -9.2270    14.2920 ca         1 JUP       0.171100
      5 C05          2.8700    -8.9380    13.0870 ca         1 JUP      -0.198000
      6 C06          3.4200    -8.0900    12.1040 cp         1 JUP       0.033000
      7 C07          2.6850    -7.8500    10.8250 cp         1 JUP      -0.162000
      8 C08          2.0740    -8.9280    10.1440 ca         1 JUP      -0.015000
      9 C09          1.3770    -8.6890     8.9450 ca         1 JUP      -0.119000
     10 C10          0.7300    -9.7990     8.2350 cc         1 JUP      -0.125000
     11 C11          0.4870    -9.7650     6.8850 cd         1 JUP      -0.109000
     12 C12         -0.1430   -10.9450     6.3900 cd         1 JUP      -0.094300
     13 C13         -0.5140   -11.1360     4.9360 c3         1 JUP       0.227100
     14 N14         -1.5040   -10.1480     4.4390 n3         1 JUP      -0.714600
     15 C15         -1.6920   -10.2310     2.9750 c3         1 JUP       0.148100
     16 C16         -2.7890   -10.1910     5.1750 c3         1 JUP       0.148100
     17 C17         -0.3660   -11.8730     7.3830 cc         1 JUP      -0.236000
     18 S18          0.2060   -11.3150     8.9520 ss         1 JUP       0.160000
     19 C19          1.3110    -7.3570     8.4740 ca         1 JUP       0.410900
     20 N20          1.8800    -6.3090     9.1120 nb         1 JUP      -0.746000
     21 C21          2.5380    -6.5720    10.2320 ca         1 JUP       0.617900
     22 N22          2.9850    -5.4250    10.7520 nv         1 JUP      -1.056900
     23 C23          4.6860    -7.5240    12.3590 ca         1 JUP      -0.154000
     24 C24          5.3650    -7.7840    13.5590 ca         1 JUP      -0.030000
     25 C25          4.8110    -8.6330    14.5460 ca         1 JUP      -0.183600
     26 C26          5.6190    -8.8640    15.8090 c          1 JUP       0.617700
     27 N27          5.1230    -9.6490    16.7830 nt         1 JUP      -0.602000
     28 O28          6.7160    -8.3590    15.9840 o          1 JUP      -0.628100
     29 C29          2.1280   -11.9300    13.8390 ca         1 JUP      -0.074300
     30 C30          3.4230   -12.4930    13.7760 ca         1 JUP      -0.098000
     31 C31          3.7720   -13.4050    12.7710 ca         1 JUP      -0.076000
     32 C32          2.8250   -13.7770    11.8120 ca         1 JUP      -0.106000
     33 C33          1.5280   -13.2460    11.8630 ca         1 JUP      -0.065000
     34 C34          1.1510   -12.3240    12.8710 ca         1 JUP      -0.180300
     35 C35         -0.2980   -11.7850    12.8850 c3         1 JUP       0.340300
     36 F36         -0.8830   -11.9180    14.0960 f          1 JUP      -0.112000
     37 F37         -0.3500   -10.4750    12.5590 f          1 JUP      -0.112000
     38 F38         -1.1080   -12.4240    12.0100 f          1 JUP      -0.112000
     39 H011         0.6620   -12.3010    16.1900 hc         1 JUP       0.057033
     40 H012         2.3800   -12.2290    16.6230 hc         1 JUP       0.057033
     41 H013         1.2890   -10.8990    17.0790 hc         1 JUP       0.057033
     42 H02          0.9690   -10.2860    14.7100 h1         1 JUP       0.069700
     43 H05          1.8960    -9.3640    12.8900 ha         1 JUP       0.130000
     44 H23          5.1560    -6.8880    11.6130 ha         1 JUP       0.133000
     45 H08          2.1570    -9.9360    10.5420 ha         1 JUP       0.122000
     46 H19          0.7670    -7.1110     7.5640 h4         1 JUP       0.025100
     47 H11          0.7450    -8.9320     6.2390 ha         1 JUP       0.144000
     48 H131         0.4100   -11.0650     4.3470 h1         1 JUP       0.039200
     49 H132        -0.9010   -12.1560     4.8020 h1         1 JUP       0.039200
     50 H17         -0.8230   -12.8510     7.3070 h4         1 JUP       0.147000
     51 H151        -2.3670    -9.4380     2.6240 h1         1 JUP       0.032200
     52 H152        -0.7340   -10.1120     2.4520 h1         1 JUP       0.032200
     53 H153        -2.1230   -11.2000     2.6890 h1         1 JUP       0.032200
     54 H161        -3.4750    -9.4190     4.8020 h1         1 JUP       0.032200
     55 H162        -3.2760   -11.1690     5.0550 h1         1 JUP       0.032200
     56 H163        -2.6380   -10.0110     6.2470 h1         1 JUP       0.032200
     57 H221         2.5670    -4.5970    10.3480 hn         1 JUP       0.481000
     58 H222         3.1490    -5.4070    11.7510 hn         1 JUP       0.481000
     59 H24          6.3390    -7.3230    13.7140 ha         1 JUP       0.146000
     60 H271         5.6570    -9.8030    17.6230 hn         1 JUP       0.324500
     61 H272         4.2150   -10.0720    16.6520 hn         1 JUP       0.324500
     62 H30          4.1750   -12.2190    14.5130 ha         1 JUP       0.131000
     63 H31          4.7770   -13.8210    12.7370 ha         1 JUP       0.125000
     64 H32          3.0930   -14.4840    11.0290 ha         1 JUP       0.126000
     65 H33          0.8180   -13.5670    11.1050 ha         1 JUP       0.134000
@<TRIPOS>BOND
     1     1     2 1   
     2     1    39 1   
     3     1    40 1   
     4     1    41 1   
     5     2     3 1   
     6     2    29 1   
     7     2    42 1   
     8     3     4 1   
     9     4     5 ar  
    10     4    25 ar  
    11     5     6 ar  
    12     5    43 1   
    13     6     7 1   
    14     6    23 ar  
    15     7     8 ar  
    16     7    21 ar  
    17     8     9 ar  
    18     8    45 1   
    19     9    10 1   
    20     9    19 ar  
    21    10    11 2   
    22    10    18 1   
    23    11    12 1   
    24    11    47 1   
    25    12    13 1   
    26    12    17 2   
    27    13    14 1   
    28    13    48 1   
    29    13    49 1   
    30    14    15 1   
    31    14    16 1   
    32    15    51 1   
    33    15    52 1   
    34    15    53 1   
    35    16    54 1   
    36    16    55 1   
    37    16    56 1   
    38    17    18 1   
    39    17    50 1   
    40    19    20 ar  
    41    19    46 1   
    42    20    21 ar  
    43    21    22 1   
    44    22    57 1   
    45    22    58 1   
    46    23    24 ar  
    47    23    44 1   
    48    24    25 ar  
    49    24    59 1   
    50    25    26 1   
    51    26    27 1   
    52    26    28 2   
    53    27    60 1   
    54    27    61 1   
    55    29    30 ar  
    56    29    34 ar  
    57    30    31 ar  
    58    30    62 1   
    59    31    32 ar  
    60    31    63 1   
    61    32    33 ar  
    62    32    64 1   
    63    33    34 ar  
    64    33    65 1   
    65    34    35 1   
    66    35    36 1   
    67    35    37 1   
    68    35    38 1   
@<TRIPOS>SUBSTRUCTURE
     1 JUP         1 TEMP              0 ****  ****    0 ROOT
