@<TRIPOS>MOLECULE
JUQ
   53    57     1     0     0
SMALL
abcg2


@<TRIPOS>ATOM
      1 C1           1.7070     3.4890     0.0870 ca         1 JUQ      -0.107000
      2 C2           2.5740     4.1420     0.9850 ca         1 JUQ      -0.102000
      3 C3           3.5960     3.4490     1.5710 ca         1 JUQ      -0.111000
      4 C7           3.0800     0.0110     0.1950 ca         1 JUQ       0.327000
      5 C8           4.1550    -0.6360     0.7460 ca         1 JUQ      -0.123000
      6 C9           5.0640     0.0440     1.5750 ca         1 JUQ      -0.101000
      7 C10          4.8750     1.3650     1.8670 ca         1 JUQ      -0.113000
      8 C12          0.8410    -0.7440    -0.3890 ca         1 JUQ       0.204000
      9 C13         -0.1220    -0.8340    -1.3870 ca         1 JUQ       0.035900
     10 C15         -1.8110    -0.8340     0.1140 ca         1 JUQ       0.074500
     11 C16         -3.2770    -0.8800     0.4250 c          1 JUQ       0.528600
     12 C19         -5.4940     0.0390    -0.4590 cx         1 JUQ      -0.181700
     13 C20         -6.0030     0.9250    -1.5830 c          1 JUQ       0.735000
     14 C27          0.6360    -0.6520     3.2630 c3         1 JUQ       0.161900
     15 C30          3.3740    -3.3110    -3.1700 cx         1 JUQ      -0.129900
     16 C31          3.4350    -3.6240    -1.7050 cx         1 JUQ      -0.129900
     17 C4           3.7890     2.0720     1.3040 ca         1 JUQ      -0.028000
     18 C5           2.8890     1.4030     0.4300 ca         1 JUQ      -0.042000
     19 C6           1.8590     2.1560    -0.1840 ca         1 JUQ      -0.088000
     20 N11          2.1900    -0.7090    -0.6410 nh         1 JUQ      -0.855200
     21 N14         -1.4300    -0.8720    -1.1420 nb         1 JUQ      -0.128000
     22 C17         -4.2180    -0.7560    -0.7020 cx         1 JUQ      -0.262700
     23 C18         -5.5540    -1.4370    -0.5970 cx         1 JUQ      -0.094400
     24 O21         -6.5350     1.9960    -1.2300 o          1 JUQ      -0.727500
     25 O22         -5.8620     0.5040    -2.7470 o          1 JUQ      -0.727500
     26 O23         -3.6400    -1.0030     1.5770 o          1 JUQ      -0.527100
     27 N24         -0.9840    -0.7760     1.1580 nb         1 JUQ      -0.213000
     28 C25          0.3010    -0.7370     0.9310 ca         1 JUQ       0.305300
     29 O26          1.1530    -0.7000     1.9380 os         1 JUQ      -0.456300
     30 C28          2.6850    -1.1450    -1.9470 c3         1 JUQ       0.264800
     31 C29          2.4610    -2.6100    -2.2130 cx         1 JUQ      -0.135700
     32 H1           0.9170     4.0480    -0.3980 ha         1 JUQ       0.122000
     33 H2           2.4370     5.1940     1.1970 ha         1 JUQ       0.110000
     34 H3           4.2790     3.9490     2.2470 ha         1 JUQ       0.106000
     35 H4           4.2900    -1.6940     0.5590 ha         1 JUQ       0.119000
     36 H5           5.9010    -0.4960     1.9980 ha         1 JUQ       0.107000
     37 H6           5.5610     1.8890     2.5220 ha         1 JUQ       0.107000
     38 H7           0.1640    -0.8680    -2.4310 h4         1 JUQ       0.023100
     39 H8          -5.6020     0.4280     0.5480 hc         1 JUQ       0.070700
     40 H9          -0.0080     0.2150     3.4100 h1         1 JUQ       0.046700
     41 H10          0.0750    -1.5540     3.5060 h1         1 JUQ       0.046700
     42 H11          1.5030    -0.5760     3.9130 h1         1 JUQ       0.046700
     43 H12          4.1910    -2.7430    -3.5970 hc         1 JUQ       0.069200
     44 H13          2.9470    -4.0460    -3.8400 hc         1 JUQ       0.069200
     45 H14          3.0490    -4.5770    -1.3660 hc         1 JUQ       0.069200
     46 H15          4.3010    -3.2780    -1.1540 hc         1 JUQ       0.069200
     47 H16          1.1900     1.6880    -0.8920 ha         1 JUQ       0.127000
     48 H17         -3.7910    -0.6710    -1.6900 hc         1 JUQ       0.126700
     49 H18         -5.7410    -2.0270     0.2910 hc         1 JUQ       0.063700
     50 H19         -5.9560    -1.8420    -1.5160 hc         1 JUQ       0.063700
     51 H21          2.2430    -0.5400    -2.7480 h1         1 JUQ       0.045700
     52 H22          3.7530    -0.9300    -1.9700 h1         1 JUQ       0.045700
     53 H23          1.4240    -2.9280    -2.2440 hc         1 JUQ       0.093700
@<TRIPOS>BOND
     1     1     2 ar  
     2     1    19 ar  
     3     1    32 1   
     4     2     3 ar  
     5     2    33 1   
     6     3    17 ar  
     7     3    34 1   
     8     4     5 ar  
     9     4    18 ar  
    10     4    20 1   
    11     5     6 ar  
    12     5    35 1   
    13     6     7 ar  
    14     6    36 1   
    15     7    17 ar  
    16     7    37 1   
    17     8     9 ar  
    18     8    20 1   
    19     8    28 ar  
    20     9    21 ar  
    21     9    38 1   
    22    10    11 1   
    23    10    21 ar  
    24    10    27 ar  
    25    11    22 1   
    26    11    26 2   
    27    12    13 1   
    28    12    22 1   
    29    12    23 1   
    30    12    39 1   
    31    13    24 1   
    32    13    25 1   
    33    14    29 1   
    34    14    40 1   
    35    14    41 1   
    36    14    42 1   
    37    15    16 1   
    38    15    31 1   
    39    15    43 1   
    40    15    44 1   
    41    16    31 1   
    42    16    45 1   
    43    16    46 1   
    44    17    18 ar  
    45    18    19 ar  
    46    19    47 1   
    47    20    30 1   
    48    22    23 1   
    49    22    48 1   
    50    23    49 1   
    51    23    50 1   
    52    27    28 ar  
    53    28    29 1   
    54    30    31 1   
    55    30    51 1   
    56    30    52 1   
    57    31    53 1   
@<TRIPOS>SUBSTRUCTURE
     1 JUQ         1 TEMP              0 ****  ****    0 ROOT
