@<TRIPOS>MOLECULE
JUQ
   53    57     1     0     0
SMALL
No Charge or Current Charge


@<TRIPOS>ATOM
      1 C1           1.6340     3.6440     0.4220 ca         1 JUQ      -0.107000
      2 C2           2.5770     4.2110     1.2920 ca         1 JUQ      -0.102000
      3 C3           3.6530     3.4390     1.7560 ca         1 JUQ      -0.111000
      4 C7           2.9800     0.1430     0.1080 ca         1 JUQ       0.327000
      5 C8           4.0870    -0.5860     0.5820 ca         1 JUQ      -0.123000
      6 C9           5.0310     0.0050     1.4350 ca         1 JUQ      -0.101000
      7 C10          4.8780     1.3420     1.8260 ca         1 JUQ      -0.113000
      8 C12          0.6780    -0.7240    -0.3200 ca         1 JUQ       0.204000
      9 C13         -0.3610    -0.7730    -1.2810 ca         1 JUQ       0.035900
     10 C15         -1.9540    -1.0660     0.3620 ca         1 JUQ       0.074500
     11 C16         -3.4150    -1.2560     0.7460 c          1 JUQ       0.528600
     12 C19         -4.7880     0.1100    -1.0230 cx         1 JUQ      -0.181700
     13 C20         -5.1040     0.1640    -2.5090 c          1 JUQ       0.735000
     14 C27          0.8120    -0.9260     3.4550 c3         1 JUQ       0.161900
     15 C30          3.1170    -3.1400    -3.4390 cx         1 JUQ      -0.129900
     16 C31          3.4920    -3.4280    -2.0050 cx         1 JUQ      -0.129900
     17 C4           3.7860     2.0950     1.3590 ca         1 JUQ      -0.028000
     18 C5           2.8310     1.5060     0.4920 ca         1 JUQ      -0.042000
     19 C6           1.7590     2.3030     0.0220 ca         1 JUQ      -0.088000
     20 N11          2.0450    -0.5170    -0.7330 nh         1 JUQ      -0.855200
     21 N14         -1.6550    -0.9410    -0.9500 nb         1 JUQ      -0.128000
     22 C17         -4.4600    -1.2250    -0.3570 cx         1 JUQ      -0.262700
     23 C18         -5.7910    -0.5460    -0.0950 cx         1 JUQ      -0.094400
     24 O21         -6.0810     0.8070    -2.8610 o          1 JUQ      -0.727500
     25 O22         -4.3450    -0.3980    -3.2830 o          1 JUQ      -0.727500
     26 O23         -3.7610    -1.4440     1.9090 o          1 JUQ      -0.527100
     27 N24         -1.0450    -1.0370     1.3630 nb         1 JUQ      -0.213000
     28 C25          0.2610    -0.8670     1.0460 ca         1 JUQ       0.305300
     29 O26          1.2010    -0.8610     2.0690 os         1 JUQ      -0.456300
     30 C28          2.5110    -0.9630    -2.0690 c3         1 JUQ       0.264800
     31 C29          2.3670    -2.4650    -2.3130 cx         1 JUQ      -0.135700
     32 H1           0.8040     4.2450     0.0550 ha         1 JUQ       0.122000
     33 H2           2.4790     5.2500     1.6010 ha         1 JUQ       0.110000
     34 H3           4.3850     3.8880     2.4240 ha         1 JUQ       0.106000
     35 H4           4.2010    -1.6280     0.3020 ha         1 JUQ       0.119000
     36 H5           5.8760    -0.5760     1.7980 ha         1 JUQ       0.107000
     37 H6           5.6120     1.7930     2.4900 ha         1 JUQ       0.107000
     38 H7          -0.1640    -0.6620    -2.3450 h4         1 JUQ       0.023100
     39 H8          -4.2760     0.9890    -0.6420 hc         1 JUQ       0.070700
     40 H9           0.1700    -0.0770     3.7220 h1         1 JUQ       0.046700
     41 H10          0.2680    -1.8560     3.6670 h1         1 JUQ       0.046700
     42 H11          1.6990    -0.8970     4.1010 h1         1 JUQ       0.046700
     43 H12          3.8040    -2.5380    -4.0300 hc         1 JUQ       0.069200
     44 H13          2.6020    -3.9200    -3.9960 hc         1 JUQ       0.069200
     45 H14          3.2270    -4.4000    -1.5950 hc         1 JUQ       0.069200
     46 H15          4.4350    -3.0240    -1.6440 hc         1 JUQ       0.069200
     47 H16          1.0210     1.8960    -0.6630 ha         1 JUQ       0.127000
     48 H17         -4.4780    -2.1110    -0.9860 hc         1 JUQ       0.126700
     49 H18         -5.9550    -0.0810     0.8750 hc         1 JUQ       0.063700
     50 H19         -6.6800    -0.9910    -0.5370 hc         1 JUQ       0.063700
     51 H21          1.9690    -0.4170    -2.8530 h1         1 JUQ       0.045700
     52 H22          3.5680    -0.6930    -2.1990 h1         1 JUQ       0.045700
     53 H23          1.3550    -2.8220    -2.1370 hc         1 JUQ       0.093700
@<TRIPOS>BOND
     1     1     2 ar  
     2     1    19 ar  
     3     1    32 1   
     4     2     3 ar  
     5     2    33 1   
     6     3    17 ar  
     7     3    34 1   
     8     4     5 ar  
     9     4    18 ar  
    10     4    20 1   
    11     5     6 ar  
    12     5    35 1   
    13     6     7 ar  
    14     6    36 1   
    15     7    17 ar  
    16     7    37 1   
    17     8     9 ar  
    18     8    20 1   
    19     8    28 ar  
    20     9    21 ar  
    21     9    38 1   
    22    10    11 1   
    23    10    21 ar  
    24    10    27 ar  
    25    11    22 1   
    26    11    26 2   
    27    12    13 1   
    28    12    22 1   
    29    12    23 1   
    30    12    39 1   
    31    13    24 1   
    32    13    25 1   
    33    14    29 1   
    34    14    40 1   
    35    14    41 1   
    36    14    42 1   
    37    15    16 1   
    38    15    31 1   
    39    15    43 1   
    40    15    44 1   
    41    16    31 1   
    42    16    45 1   
    43    16    46 1   
    44    17    18 ar  
    45    18    19 ar  
    46    19    47 1   
    47    20    30 1   
    48    22    23 1   
    49    22    48 1   
    50    23    49 1   
    51    23    50 1   
    52    27    28 ar  
    53    28    29 1   
    54    30    31 1   
    55    30    51 1   
    56    30    52 1   
    57    31    53 1   
@<TRIPOS>SUBSTRUCTURE
     1 JUQ         1 TEMP              0 ****  ****    0 ROOT
