@<TRIPOS>MOLECULE
JUR
   49    52     1     0     0
SMALL
No Charge or Current Charge


@<TRIPOS>ATOM
      1 C02         -7.0420   -17.7570    34.5960 c          1 JUR       0.637300
      2 C04         -6.9880   -17.0310    35.8960 cc         1 JUR      -0.138300
      3 C05         -6.5810   -15.7080    36.0790 cd         1 JUR      -0.201200
      4 C06         -6.6390   -15.3450    37.4710 ca         1 JUR      -0.115800
      5 C07         -6.3210   -14.1500    38.1280 ca         1 JUR      -0.034000
      6 C08         -6.4650   -14.0900    39.5430 cp         1 JUR      -0.079000
      7 C09         -6.1380   -12.8370    40.2960 cp         1 JUR       0.018000
      8 C10         -6.3260   -11.5540    39.7310 ca         1 JUR      -0.161500
      9 C11         -6.0080   -10.4030    40.4710 ca         1 JUR       0.333900
     10 C13         -5.3270   -11.6690    42.2830 ca         1 JUR       0.333900
     11 C14         -5.6220   -12.8670    41.6130 ca         1 JUR      -0.161500
     12 C15         -6.9270   -15.2590    40.2230 ca         1 JUR      -0.072000
     13 C16         -7.2390   -16.4470    39.5250 ca         1 JUR      -0.126000
     14 C17         -7.0840   -16.4530    38.1310 ca         1 JUR      -0.032200
     15 C20         -6.6660   -19.7580    38.0200 c3         1 JUR       0.150800
     16 C22         -5.9820   -21.8680    39.1180 c6         1 JUR       0.128300
     17 C23         -6.4500   -23.2380    39.7060 c6         1 JUR       0.147300
     18 C25         -8.3290   -23.2740    38.1250 c6         1 JUR       0.147300
     19 C26         -7.8640   -21.9010    37.5390 c6         1 JUR       0.128300
     20 N01         -6.6700   -17.0590    33.5020 nt         1 JUR      -0.600000
     21 N12         -5.5140   -10.4500    41.7290 nb         1 JUR      -0.665000
     22 N18         -7.3090   -17.4690    37.2050 na         1 JUR      -0.048700
     23 N21         -7.1130   -21.0770    38.5410 n3         1 JUR      -0.722600
     24 N24         -7.1980   -24.0550    38.7070 n7         1 JUR      -0.841400
     25 O03         -7.3920   -18.9190    34.4700 o          1 JUR      -0.607100
     26 H1          -6.2520   -15.0360    35.2910 ha         1 JUR       0.204000
     27 H2          -5.9570   -13.2970    37.5610 ha         1 JUR       0.119000
     28 H3          -6.7310   -11.4390    38.7300 ha         1 JUR       0.122500
     29 H4          -6.1540    -9.4120    40.0440 h4         1 JUR       0.017100
     30 H5          -4.9250   -11.6850    43.2960 h4         1 JUR       0.017100
     31 H6          -5.4330   -13.8100    42.1160 ha         1 JUR       0.122500
     32 H7          -7.0580   -15.2410    41.3020 ha         1 JUR       0.116000
     33 H8          -7.5870   -17.3240    40.0640 ha         1 JUR       0.123000
     34 H9          -8.4950   -18.6780    38.4580 h1         1 JUR       0.083700
     35 H10         -8.3790   -19.2270    36.7880 h1         1 JUR       0.083700
     36 H11         -6.0080   -19.9030    37.1510 h1         1 JUR       0.039700
     37 H12         -6.0680   -19.2510    38.7900 h1         1 JUR       0.039700
     38 H14         -5.4870   -21.2960    39.9160 h1         1 JUR       0.036950
     39 H15         -5.5750   -23.7990    40.0660 h1         1 JUR       0.060200
     40 H16         -7.0960   -23.0470    40.5770 h1         1 JUR       0.060200
     41 H17         -9.0820   -23.0870    38.9060 h1         1 JUR       0.060200
     42 H18         -8.8190   -23.8610    37.3340 h1         1 JUR       0.060200
     43 H19         -8.7570   -21.3650    37.1860 h1         1 JUR       0.036950
     44 H20         -7.2330   -22.0890    36.6580 h1         1 JUR       0.036950
     45 H21         -6.6910   -17.5120    32.6010 hn         1 JUR       0.320500
     46 H22         -6.3790   -16.0990    33.5880 hn         1 JUR       0.320500
     47 H24         -6.5510   -24.2830    37.9430 hn         1 JUR       0.399000
     48 C19         -7.8050   -18.7970    37.6150 c3         1 JUR       0.063600
     49 H13         -5.2230   -22.0590    38.3440 h1         1 JUR       0.036950
@<TRIPOS>BOND
     1     1     2 1   
     2     1    20 1   
     3     1    25 2   
     4     2     3 2   
     5     2    22 1   
     6     3     4 1   
     7     3    26 1   
     8     4     5 ar  
     9     4    14 ar  
    10     5     6 ar  
    11     5    27 1   
    12     6     7 1   
    13     6    12 ar  
    14     7     8 ar  
    15     7    11 ar  
    16     8     9 ar  
    17     8    28 1   
    18     9    21 ar  
    19     9    29 1   
    20    10    11 ar  
    21    10    21 ar  
    22    10    30 1   
    23    11    31 1   
    24    12    13 ar  
    25    12    32 1   
    26    13    14 ar  
    27    13    33 1   
    28    14    22 1   
    29    15    23 1   
    30    15    36 1   
    31    15    37 1   
    32    15    48 1   
    33    16    17 1   
    34    16    23 1   
    35    16    38 1   
    36    16    49 1   
    37    17    24 1   
    38    17    39 1   
    39    17    40 1   
    40    18    19 1   
    41    18    24 1   
    42    18    41 1   
    43    18    42 1   
    44    19    23 1   
    45    19    43 1   
    46    19    44 1   
    47    20    45 1   
    48    20    46 1   
    49    22    48 1   
    50    24    47 1   
    51    34    48 1   
    52    35    48 1   
@<TRIPOS>SUBSTRUCTURE
     1 JUR         1 TEMP              0 ****  ****    0 ROOT
