@<TRIPOS>MOLECULE
JUR
   49    52     1     0     0
SMALL
bcc


@<TRIPOS>ATOM
      1 C02         -7.4510   -17.8560    34.8720 c          1 JUR       0.704300
      2 C04         -7.2160   -17.0310    36.0840 cc         1 JUR      -0.138300
      3 C05         -6.7390   -15.7470    36.1250 cd         1 JUR      -0.151200
      4 C06         -6.7520   -15.3420    37.4870 ca         1 JUR      -0.115800
      5 C07         -6.3880   -14.1650    38.1460 ca         1 JUR      -0.052000
      6 C08         -6.4950   -14.0970    39.5260 cp         1 JUR      -0.079000
      7 C09         -6.1010   -12.8750    40.2510 cp         1 JUR       0.018000
      8 C10         -6.2880   -11.6050    39.7060 ca         1 JUR      -0.244800
      9 C11         -5.8960   -10.4900    40.4280 ca         1 JUR       0.399200
     10 C13         -5.1640   -11.7540    42.1570 ca         1 JUR       0.399200
     11 C14         -5.5180   -12.9310    41.5170 ca         1 JUR      -0.244800
     12 C15         -6.9800   -15.2160    40.2420 ca         1 JUR      -0.090000
     13 C16         -7.3550   -16.3830    39.6170 ca         1 JUR      -0.144000
     14 C17         -7.2440   -16.4390    38.2250 ca         1 JUR      -0.032200
     15 C20         -6.6980   -19.6710    38.0030 c3         1 JUR       0.150800
     16 C22         -6.0880   -21.6890    39.1810 c6         1 JUR       0.128300
     17 C23         -6.6120   -23.0390    39.6510 c6         1 JUR       0.147300
     18 C25         -8.0010   -23.1760    37.7120 c6         1 JUR       0.147300
     19 C26         -7.4790   -21.8220    37.2490 c6         1 JUR       0.128300
     20 N01         -6.6380   -17.5720    33.8440 nt         1 JUR      -0.667000
     21 N12         -5.3430   -10.5460    41.6350 nb         1 JUR      -0.665000
     22 N18         -7.5450   -17.4470    37.3570 na         1 JUR      -0.019400
     23 N21         -7.0980   -21.0060    38.3900 n3         1 JUR      -0.722600
     24 N24         -7.0730   -23.8940    38.5700 n7         1 JUR      -0.786200
     25 O03         -8.3350   -18.6990    34.8120 o          1 JUR      -0.607100
     26 H1          -6.4510   -15.1440    35.2780 ha         1 JUR       0.154000
     27 H2          -5.9950   -13.3300    37.5790 ha         1 JUR       0.137000
     28 H3          -6.7550   -11.4730    38.7390 ha         1 JUR       0.140500
     29 H4          -6.0430    -9.5000    40.0090 h4         1 JUR       0.017100
     30 H5          -4.7070   -11.7950    43.1400 h4         1 JUR       0.017100
     31 H6          -5.3180   -13.8770    42.0030 ha         1 JUR       0.140500
     32 H7          -7.0830   -15.1520    41.3170 ha         1 JUR       0.134000
     33 H8          -7.7290   -17.2150    40.1980 ha         1 JUR       0.141000
     34 H9          -8.4790   -18.6980    38.7140 h1         1 JUR       0.083700
     35 H10         -8.5970   -19.2070    37.0470 h1         1 JUR       0.083700
     36 H11         -6.0670   -19.6680    37.1000 h1         1 JUR       0.039700
     37 H12         -6.0970   -19.2360    38.8050 h1         1 JUR       0.039700
     38 H14         -5.8360   -21.0740    40.0490 h1         1 JUR       0.036950
     39 H15         -5.8340   -23.5600    40.2120 h1         1 JUR       0.060200
     40 H16         -7.4480   -22.8750    40.3400 h1         1 JUR       0.060200
     41 H17         -8.9350   -23.0260    38.2640 h1         1 JUR       0.060200
     42 H18         -8.2390   -23.7930    36.8440 h1         1 JUR       0.060200
     43 H19         -8.2570   -21.3170    36.6720 h1         1 JUR       0.036950
     44 H20         -6.6250   -21.9740    36.5650 h1         1 JUR       0.036950
     45 H21         -6.7570   -18.0540    32.9670 hn         1 JUR       0.320500
     46 H22         -5.8390   -16.9680    33.9360 hn         1 JUR       0.320500
     47 H24         -6.2740   -24.1840    38.0180 hn         1 JUR       0.343800
     48 C19         -7.9210   -18.7820    37.7820 c3         1 JUR       0.034300
     49 H13         -5.1550   -21.8400    38.6100 h1         1 JUR       0.036950
@<TRIPOS>BOND
     1     1     2 1   
     2     1    20 1   
     3     1    25 2   
     4     2     3 2   
     5     2    22 1   
     6     3     4 1   
     7     3    26 1   
     8     4     5 ar  
     9     4    14 ar  
    10     5     6 ar  
    11     5    27 1   
    12     6     7 1   
    13     6    12 ar  
    14     7     8 ar  
    15     7    11 ar  
    16     8     9 ar  
    17     8    28 1   
    18     9    21 ar  
    19     9    29 1   
    20    10    11 ar  
    21    10    21 ar  
    22    10    30 1   
    23    11    31 1   
    24    12    13 ar  
    25    12    32 1   
    26    13    14 ar  
    27    13    33 1   
    28    14    22 1   
    29    15    23 1   
    30    15    36 1   
    31    15    37 1   
    32    15    48 1   
    33    16    17 1   
    34    16    23 1   
    35    16    38 1   
    36    16    49 1   
    37    17    24 1   
    38    17    39 1   
    39    17    40 1   
    40    18    19 1   
    41    18    24 1   
    42    18    41 1   
    43    18    42 1   
    44    19    23 1   
    45    19    43 1   
    46    19    44 1   
    47    20    45 1   
    48    20    46 1   
    49    22    48 1   
    50    24    47 1   
    51    34    48 1   
    52    35    48 1   
@<TRIPOS>SUBSTRUCTURE
     1 JUR         1 TEMP              0 ****  ****    0 ROOT
