@<TRIPOS>MOLECULE
JUS
   43    44     1     0     0
SMALL
No Charge or Current Charge


@<TRIPOS>ATOM
      1 C1          -0.7540     0.5600    -0.7430 ca         1 JUS      -0.199000
      2 C2          -1.5370     0.7670     0.4100 ca         1 JUS      -0.028300
      3 C3          -0.9890     0.4990     1.6780 ca         1 JUS      -0.139000
      4 C4           0.3330     0.0360     1.7970 ca         1 JUS      -0.071000
      5 C5           1.1180    -0.1560     0.6480 ca         1 JUS       0.046100
      6 C6           0.5690     0.0980    -0.6320 ca         1 JUS       0.134100
      7 C8           3.5060     0.1070     0.3630 ca         1 JUS       0.185100
      8 C9           3.4760     1.5180     0.3460 ca         1 JUS      -0.188000
      9 C10          4.5980     2.2450    -0.0860 ca         1 JUS      -0.055000
     10 C11          5.7570     1.5650    -0.4970 ca         1 JUS      -0.153000
     11 C12          5.7970     0.1600    -0.4750 ca         1 JUS      -0.040000
     12 C13          4.6740    -0.5740    -0.0420 ca         1 JUS      -0.054000
     13 C14         -2.9710     1.2620     0.2840 c3         1 JUS      -0.036100
     14 C15         -3.9770     0.0990     0.1540 c3         1 JUS      -0.072400
     15 C16         -5.4410     0.5730     0.0250 c3         1 JUS      -0.076400
     16 C17         -6.4450    -0.5940    -0.1040 c3         1 JUS      -0.075400
     17 C18         -7.9090    -0.1200    -0.2330 c3         1 JUS      -0.075400
     18 C19         -8.9110    -1.2830    -0.3620 c3         1 JUS      -0.088100
     19 CAD          4.7280    -2.0090    -0.0260 cg         1 JUS       0.341000
     20 O17          1.2990    -0.1130    -1.7700 oh         1 JUS      -0.514100
     21 NAB          4.7870    -3.1750    -0.0160 n1         1 JUS      -0.459000
     22 O7           2.4100    -0.6110     0.7990 os         1 JUS      -0.223200
     23 H1          -1.1820     0.7560    -1.7230 ha         1 JUS       0.117000
     24 H3          -1.5880     0.6470     2.5730 ha         1 JUS       0.122000
     25 H141        -3.2360     1.8720     1.1560 hc         1 JUS       0.048200
     26 H142        -3.0660     1.9200    -0.5890 hc         1 JUS       0.048200
     27 H4           0.7520    -0.1690     2.7800 ha         1 JUS       0.133000
     28 H17          0.7410     0.1110    -2.5430 ho         1 JUS       0.468000
     29 H9           2.5880     2.0530     0.6700 ha         1 JUS       0.129000
     30 H10          4.5710     3.3320    -0.0990 ha         1 JUS       0.114000
     31 H11          6.6260     2.1280    -0.8310 ha         1 JUS       0.121000
     32 H12          6.7010    -0.3560    -0.7930 ha         1 JUS       0.126000
     33 H151        -3.7140    -0.5060    -0.7230 hc         1 JUS       0.044200
     34 H152        -3.8840    -0.5540     1.0310 hc         1 JUS       0.044200
     35 H161        -5.7020     1.1780     0.9030 hc         1 JUS       0.036700
     36 H162        -5.5320     1.2250    -0.8530 hc         1 JUS       0.036700
     37 H171        -6.1830    -1.1980    -0.9820 hc         1 JUS       0.039200
     38 H172        -6.3530    -1.2460     0.7730 hc         1 JUS       0.039200
     39 H181        -8.1750     0.4840     0.6430 hc         1 JUS       0.036200
     40 H182        -8.0040     0.5310    -1.1110 hc         1 JUS       0.036200
     41 H191        -9.9340    -0.8990    -0.4510 hc         1 JUS       0.032367
     42 H192        -8.6930    -1.8870    -1.2510 hc         1 JUS       0.032367
     43 H193        -8.8640    -1.9350     0.5190 hc         1 JUS       0.032367
@<TRIPOS>BOND
     1     1     2 ar  
     2     1     6 ar  
     3     1    23 1   
     4     2     3 ar  
     5     2    13 1   
     6     3     4 ar  
     7     3    24 1   
     8     4     5 ar  
     9     4    27 1   
    10     5     6 ar  
    11     5    22 1   
    12     6    20 1   
    13     7     8 ar  
    14     7    12 ar  
    15     7    22 1   
    16     8     9 ar  
    17     8    29 1   
    18     9    10 ar  
    19     9    30 1   
    20    10    11 ar  
    21    10    31 1   
    22    11    12 ar  
    23    11    32 1   
    24    12    19 1   
    25    13    14 1   
    26    13    25 1   
    27    13    26 1   
    28    14    15 1   
    29    14    33 1   
    30    14    34 1   
    31    15    16 1   
    32    15    35 1   
    33    15    36 1   
    34    16    17 1   
    35    16    37 1   
    36    16    38 1   
    37    17    18 1   
    38    17    39 1   
    39    17    40 1   
    40    18    41 1   
    41    18    42 1   
    42    18    43 1   
    43    19    21 3   
    44    20    28 1   
@<TRIPOS>SUBSTRUCTURE
     1 JUS         1 TEMP              0 ****  ****    0 ROOT
