@<TRIPOS>MOLECULE
JUS
   43    44     1     0     0
SMALL
abcg2


@<TRIPOS>ATOM
      1 C1          -0.7760     0.4920    -0.9800 ca         1 JUS      -0.199000
      2 C2          -1.5180     0.6740     0.1840 ca         1 JUS      -0.028300
      3 C3          -0.9330     0.3720     1.4100 ca         1 JUS      -0.139000
      4 C4           0.3740    -0.0900     1.4700 ca         1 JUS      -0.071000
      5 C5           1.1000    -0.2600     0.3070 ca         1 JUS       0.046100
      6 C6           0.5340     0.0280    -0.9340 ca         1 JUS       0.134100
      7 C8           3.4200     0.0960     0.2210 ca         1 JUS       0.185100
      8 C9           3.3110     1.4800     0.2470 ca         1 JUS      -0.188000
      9 C10          4.4530     2.2560     0.1220 ca         1 JUS      -0.055000
     10 C11          5.7080     1.6780    -0.0300 ca         1 JUS      -0.153000
     11 C12          5.8210     0.3010    -0.0560 ca         1 JUS      -0.040000
     12 C13          4.6800    -0.4930     0.0680 ca         1 JUS      -0.054000
     13 C14         -2.9380     1.1590     0.1080 c3         1 JUS      -0.036100
     14 C15         -3.9590     0.0220     0.0900 c3         1 JUS      -0.072400
     15 C16         -5.3890     0.5390     0.0060 c3         1 JUS      -0.076400
     16 C17         -6.4390    -0.5640     0.0040 c3         1 JUS      -0.075400
     17 C18         -7.8630    -0.0280    -0.0840 c3         1 JUS      -0.075400
     18 C19         -8.9150    -1.1270    -0.0810 c3         1 JUS      -0.088100
     19 CAD          4.7850    -1.9120     0.0370 cg         1 JUS       0.341000
     20 O17          1.3000    -0.1520    -2.0230 oh         1 JUS      -0.514100
     21 NAB          4.8900    -3.0600     0.0170 n1         1 JUS      -0.459000
     22 O7           2.3840    -0.7550     0.3580 os         1 JUS      -0.223200
     23 H1          -1.2210     0.7240    -1.9420 ha         1 JUS       0.117000
     24 H3          -1.4920     0.5090     2.3270 ha         1 JUS       0.122000
     25 H141        -3.1440     1.8120     0.9620 hc         1 JUS       0.048200
     26 H142        -3.0690     1.7730    -0.7870 hc         1 JUS       0.048200
     27 H4           0.8350    -0.3200     2.4220 ha         1 JUS       0.133000
     28 H17          0.8030     0.0650    -2.8210 ho         1 JUS       0.468000
     29 H9           2.3490     1.9580     0.3740 ha         1 JUS       0.129000
     30 H10          4.3560     3.3330     0.1450 ha         1 JUS       0.114000
     31 H11          6.5890     2.2970    -0.1260 ha         1 JUS       0.121000
     32 H12          6.7870    -0.1720    -0.1740 ha         1 JUS       0.126000
     33 H151        -3.7560    -0.6390    -0.7590 hc         1 JUS       0.044200
     34 H152        -3.8400    -0.5910     0.9900 hc         1 JUS       0.044200
     35 H161        -5.5750     1.2160     0.8480 hc         1 JUS       0.036700
     36 H162        -5.4990     1.1480    -0.8980 hc         1 JUS       0.036700
     37 H171        -6.2570    -1.2430    -0.8360 hc         1 JUS       0.039200
     38 H172        -6.3350    -1.1710     0.9100 hc         1 JUS       0.039200
     39 H181        -8.0420     0.6550     0.7520 hc         1 JUS       0.036200
     40 H182        -7.9640     0.5760    -0.9920 hc         1 JUS       0.036200
     41 H191        -9.9240    -0.7170    -0.1360 hc         1 JUS       0.032367
     42 H192        -8.7870    -1.8000    -0.9300 hc         1 JUS       0.032367
     43 H193        -8.8540    -1.7300     0.8270 hc         1 JUS       0.032367
@<TRIPOS>BOND
     1     1     2 ar  
     2     1     6 ar  
     3     1    23 1   
     4     2     3 ar  
     5     2    13 1   
     6     3     4 ar  
     7     3    24 1   
     8     4     5 ar  
     9     4    27 1   
    10     5     6 ar  
    11     5    22 1   
    12     6    20 1   
    13     7     8 ar  
    14     7    12 ar  
    15     7    22 1   
    16     8     9 ar  
    17     8    29 1   
    18     9    10 ar  
    19     9    30 1   
    20    10    11 ar  
    21    10    31 1   
    22    11    12 ar  
    23    11    32 1   
    24    12    19 1   
    25    13    14 1   
    26    13    25 1   
    27    13    26 1   
    28    14    15 1   
    29    14    33 1   
    30    14    34 1   
    31    15    16 1   
    32    15    35 1   
    33    15    36 1   
    34    16    17 1   
    35    16    37 1   
    36    16    38 1   
    37    17    18 1   
    38    17    39 1   
    39    17    40 1   
    40    18    41 1   
    41    18    42 1   
    42    18    43 1   
    43    19    21 3   
    44    20    28 1   
@<TRIPOS>SUBSTRUCTURE
     1 JUS         1 TEMP              0 ****  ****    0 ROOT
