@<TRIPOS>MOLECULE
JUT
   20    21     1     0     0
SMALL
abcg2


@<TRIPOS>ATOM
      1 CAN         47.1300    43.9330    -7.0910 ca         1 JUT      -0.118000
      2 CAL         46.7790    45.2430    -6.8600 ca         1 JUT       0.127000
      3 FAM         47.1850    46.2030    -7.6970 f          1 JUT      -0.163000
      4 CAJ         46.0020    45.5890    -5.7660 ca         1 JUT       0.138000
      5 FAK         45.6830    46.8730    -5.5720 f          1 JUT      -0.161000
      6 CAI         45.5690    44.6150    -4.8930 ca         1 JUT      -0.136000
      7 CAH         45.9180    43.2910    -5.1190 ca         1 JUT      -0.066000
      8 CAG         46.7010    42.9320    -6.2150 ca         1 JUT      -0.106500
      9 CAD         47.0670    41.5270    -6.4360 cc         1 JUT       0.383500
     10 NAC         46.5630    40.5720    -5.5890 nc         1 JUT      -0.733000
     11 CAB         46.9770    39.3870    -5.9110 cd         1 JUT       0.705300
     12 NAA         46.5990    38.2490    -5.2920 nv         1 JUT      -1.045900
     13 SAF         48.0350    39.3490    -7.2980 ss         1 JUT      -0.094400
     14 CAE         47.8820    41.0630    -7.4190 cd         1 JUT      -0.269000
     15 H1          47.7360    43.7070    -7.9590 ha         1 JUT       0.133000
     16 H2          44.9650    44.8890    -4.0380 ha         1 JUT       0.136000
     17 H3          45.5780    42.5310    -4.4310 ha         1 JUT       0.144000
     18 H4          47.1640    37.4230    -5.3980 hn         1 JUT       0.482500
     19 H5          46.1730    38.3530    -4.3850 hn         1 JUT       0.482500
     20 H6          48.4020    41.6060    -8.1920 h4         1 JUT       0.163000
@<TRIPOS>BOND
     1     1     2 ar  
     2     1     8 ar  
     3     1    15 1   
     4     2     3 1   
     5     2     4 ar  
     6     4     5 1   
     7     4     6 ar  
     8     6     7 ar  
     9     6    16 1   
    10     7     8 ar  
    11     7    17 1   
    12     8     9 1   
    13     9    10 1   
    14     9    14 2   
    15    10    11 2   
    16    11    12 1   
    17    11    13 1   
    18    12    18 1   
    19    12    19 1   
    20    13    14 1   
    21    14    20 1   
@<TRIPOS>SUBSTRUCTURE
     1 JUT         1 TEMP              0 ****  ****    0 ROOT
