@<TRIPOS>MOLECULE
JUT
   20    21     1     0     0
SMALL
No Charge or Current Charge


@<TRIPOS>ATOM
      1 CAN         47.0040    43.8670    -7.1640 ca         1 JUT      -0.118000
      2 CAL         46.6400    45.2110    -6.9780 ca         1 JUT       0.127000
      3 FAM         46.9180    46.1160    -7.9450 f          1 JUT      -0.163000
      4 CAJ         45.9840    45.6110    -5.8010 ca         1 JUT       0.138000
      5 FAK         45.6290    46.9030    -5.6170 f          1 JUT      -0.161000
      6 CAI         45.6830    44.6620    -4.8120 ca         1 JUT      -0.136000
      7 CAH         46.0470    43.3160    -4.9960 ca         1 JUT      -0.066000
      8 CAG         46.7300    42.9010    -6.1650 ca         1 JUT      -0.106500
      9 CAD         47.0690    41.4800    -6.3550 cc         1 JUT       0.383500
     10 NAC         46.4330    40.4720    -5.6750 nc         1 JUT      -0.733000
     11 CAB         46.9640    39.3400    -6.0420 cd         1 JUT       0.705300
     12 NAA         46.4710    38.2390    -5.4670 nv         1 JUT      -1.045900
     13 SAF         48.2780    39.3740    -7.2090 ss         1 JUT      -0.094400
     14 CAE         48.0870    41.1200    -7.2090 cd         1 JUT      -0.269000
     15 H1          47.4900    43.5870    -8.0950 ha         1 JUT       0.133000
     16 H2          45.1680    44.9700    -3.9060 ha         1 JUT       0.136000
     17 H3          45.8020    42.5930    -4.2200 ha         1 JUT       0.144000
     18 H4          47.0690    37.4210    -5.4580 hn         1 JUT       0.482500
     19 H5          45.9120    38.4000    -4.6390 hn         1 JUT       0.482500
     20 H6          48.7310    41.7500    -7.8080 h4         1 JUT       0.163000
@<TRIPOS>BOND
     1     1     2 ar  
     2     1     8 ar  
     3     1    15 1   
     4     2     3 1   
     5     2     4 ar  
     6     4     5 1   
     7     4     6 ar  
     8     6     7 ar  
     9     6    16 1   
    10     7     8 ar  
    11     7    17 1   
    12     8     9 1   
    13     9    10 1   
    14     9    14 2   
    15    10    11 2   
    16    11    12 1   
    17    11    13 1   
    18    12    18 1   
    19    12    19 1   
    20    13    14 1   
    21    14    20 1   
@<TRIPOS>SUBSTRUCTURE
     1 JUT         1 TEMP              0 ****  ****    0 ROOT
