@<TRIPOS>MOLECULE
JUU
   44    45     1     0     0
SMALL
abcg2


@<TRIPOS>ATOM
      1 C63        161.5450   171.6260   149.3090 c3         1 JUU       0.126500
      2 C64        162.5520   171.5050   150.4600 c3         1 JUU      -0.039100
      3 C65        161.9910   171.9700   151.7750 ca         1 JUU      -0.071300
      4 C66        161.5800   171.0640   152.7500 ca         1 JUU      -0.110500
      5 C67        161.0480   171.5050   153.9560 ca         1 JUU      -0.116500
      6 C68        160.9190   172.8640   154.2050 ca         1 JUU      -0.125000
      7 C69        161.3250   173.7790   153.2400 ca         1 JUU      -0.116500
      8 C70        161.8560   173.3340   152.0390 ca         1 JUU      -0.110500
      9 C71        162.1330   171.1920   147.9580 c3         1 JUU       0.161300
     10 C72        163.3690   171.9930   147.5710 c3         1 JUU       0.115000
     11 C73        163.0970   172.3510   145.1650 c3         1 JUU       0.151300
     12 C74        163.2130   173.8580   145.1160 ca         1 JUU      -0.079300
     13 C75        164.4530   174.4680   144.9260 ca         1 JUU      -0.104000
     14 C76        164.5650   175.8500   144.8890 ca         1 JUU      -0.128500
     15 C77        163.4380   176.6500   145.0480 ca         1 JUU      -0.137000
     16 C78        162.2000   176.0540   145.2410 ca         1 JUU      -0.128500
     17 C79        162.0930   174.6680   145.2750 ca         1 JUU      -0.104000
     18 C80        165.1250   171.1820   146.0040 c          1 JUU       0.750000
     19 N15        160.4010   170.7580   149.5650 n8         1 JUU      -1.022200
     20 N16        163.8460   171.7430   146.2360 n          1 JUU      -0.461800
     21 O17        162.4340   169.8160   147.9770 oh         1 JUU      -0.624000
     22 O18        165.7470   170.7620   147.0020 o          1 JUU      -0.730000
     23 H1         161.2620   172.6860   149.2200 h1         1 JUU       0.019700
     24 H2         162.8850   170.4680   150.5430 hc         1 JUU       0.075200
     25 H3         163.4320   172.1040   150.2210 hc         1 JUU       0.075200
     26 H4         161.6840   170.0010   152.5660 ha         1 JUU       0.117500
     27 H5         160.7380   170.7840   154.7020 ha         1 JUU       0.103500
     28 H6         160.5080   173.2090   155.1450 ha         1 JUU       0.101000
     29 H7         161.2330   174.8410   153.4280 ha         1 JUU       0.103500
     30 H8         162.1770   174.0540   151.2950 ha         1 JUU       0.117500
     31 H9         161.3460   171.3940   147.2100 h1         1 JUU       0.008700
     32 H10        164.1820   171.7740   148.2610 h1         1 JUU       0.039200
     33 H11        163.1230   173.0570   147.6980 h1         1 JUU       0.039200
     34 H12        162.0380   172.0870   145.2530 h1         1 JUU       0.043700
     35 H13        163.4450   171.9260   144.2250 h1         1 JUU       0.043700
     36 H14        165.3340   173.8510   144.7960 ha         1 JUU       0.124000
     37 H15        165.5350   176.3080   144.7340 ha         1 JUU       0.093500
     38 H16        163.5270   177.7280   145.0210 ha         1 JUU       0.090000
     39 H17        161.3170   176.6670   145.3710 ha         1 JUU       0.093500
     40 H18        161.1230   174.2100   145.4310 ha         1 JUU       0.124000
     41 H20        160.0370   170.9080   150.4970 hn         1 JUU       0.393500
     42 H21        159.6460   170.9900   148.9300 hn         1 JUU       0.393500
     43 H23        161.7050   169.4130   148.4710 ho         1 JUU       0.434000
     44 O1         165.5140   171.1470   144.8160 o          1 JUU      -0.730000
@<TRIPOS>BOND
     1     1     2 1   
     2     1     9 1   
     3     1    19 1   
     4     1    23 1   
     5     2     3 1   
     6     2    24 1   
     7     2    25 1   
     8     3     4 ar  
     9     3     8 ar  
    10     4     5 ar  
    11     4    26 1   
    12     5     6 ar  
    13     5    27 1   
    14     6     7 ar  
    15     6    28 1   
    16     7     8 ar  
    17     7    29 1   
    18     8    30 1   
    19     9    10 1   
    20     9    21 1   
    21     9    31 1   
    22    10    20 1   
    23    10    32 1   
    24    10    33 1   
    25    11    12 1   
    26    11    20 1   
    27    11    34 1   
    28    11    35 1   
    29    12    13 ar  
    30    12    17 ar  
    31    13    14 ar  
    32    13    36 1   
    33    14    15 ar  
    34    14    37 1   
    35    15    16 ar  
    36    15    38 1   
    37    16    17 ar  
    38    16    39 1   
    39    17    40 1   
    40    18    20 1   
    41    18    22 1   
    42    18    44 1   
    43    19    41 1   
    44    19    42 1   
    45    21    43 1   
@<TRIPOS>SUBSTRUCTURE
     1 JUU         1 TEMP              0 ****  ****    0 ROOT
