@<TRIPOS>MOLECULE
JUU
   44    45     1     0     0
SMALL
No Charge or Current Charge


@<TRIPOS>ATOM
      1 C63        161.7140   171.8810   149.0460 c3         1 JUU       0.126500
      2 C64        162.6690   171.6930   150.2590 c3         1 JUU      -0.039100
      3 C65        162.0930   172.2260   151.5700 ca         1 JUU      -0.071300
      4 C66        161.7200   171.3410   152.6020 ca         1 JUU      -0.110500
      5 C67        161.1930   171.8370   153.8070 ca         1 JUU      -0.116500
      6 C68        161.0360   173.2210   153.9900 ca         1 JUU      -0.125000
      7 C69        161.4080   174.1090   152.9670 ca         1 JUU      -0.116500
      8 C70        161.9350   173.6140   151.7620 ca         1 JUU      -0.110500
      9 C71        162.2550   171.3070   147.6980 c3         1 JUU       0.161300
     10 C72        163.7410   171.6530   147.3790 c3         1 JUU       0.115000
     11 C73        163.5760   172.2800   144.9050 c3         1 JUU       0.151300
     12 C74        163.2640   173.7140   145.3330 ca         1 JUU      -0.079300
     13 C75        164.3140   174.6140   145.6010 ca         1 JUU      -0.104000
     14 C76        164.0340   175.9310   146.0070 ca         1 JUU      -0.128500
     15 C77        162.7020   176.3560   146.1450 ca         1 JUU      -0.137000
     16 C78        161.6510   175.4650   145.8750 ca         1 JUU      -0.128500
     17 C79        161.9300   174.1480   145.4680 ca         1 JUU      -0.104000
     18 C80        164.9660   170.3050   145.6170 c          1 JUU       0.750000
     19 N15        160.3990   171.2560   149.3550 n8         1 JUU      -1.022200
     20 N16        164.1490   171.4010   145.9630 n          1 JUU      -0.461800
     21 O17        162.0180   169.8980   147.7400 oh         1 JUU      -0.624000
     22 O18        165.4400   169.6150   146.5040 o          1 JUU      -0.730000
     23 H1         161.5480   172.9600   148.9210 h1         1 JUU       0.019700
     24 H2         162.9240   170.6310   150.3570 hc         1 JUU       0.075200
     25 H3         163.6130   172.2120   150.0590 hc         1 JUU       0.075200
     26 H4         161.8370   170.2670   152.4700 ha         1 JUU       0.117500
     27 H5         160.9060   171.1480   154.5980 ha         1 JUU       0.103500
     28 H6         160.6280   173.6040   154.9220 ha         1 JUU       0.101000
     29 H7         161.2880   175.1810   153.1080 ha         1 JUU       0.103500
     30 H8         162.2220   174.3090   150.9760 ha         1 JUU       0.117500
     31 H9         161.6320   171.7380   146.9040 h1         1 JUU       0.008700
     32 H10        164.3890   171.1010   148.0700 h1         1 JUU       0.039200
     33 H11        163.9030   172.7140   147.6040 h1         1 JUU       0.039200
     34 H12        162.6610   171.8060   144.5270 h1         1 JUU       0.043700
     35 H13        164.2770   172.3410   144.0630 h1         1 JUU       0.043700
     36 H14        165.3470   174.2890   145.5000 ha         1 JUU       0.124000
     37 H15        164.8490   176.6200   146.2150 ha         1 JUU       0.093500
     38 H16        162.4860   177.3740   146.4600 ha         1 JUU       0.090000
     39 H17        160.6190   175.7930   145.9800 ha         1 JUU       0.093500
     40 H18        161.1080   173.4660   145.2610 ha         1 JUU       0.124000
     41 H20        160.1550   171.4970   150.3240 hn         1 JUU       0.393500
     42 H21        159.6680   171.7270   148.8060 hn         1 JUU       0.393500
     43 H23        161.2680   169.8640   148.3860 ho         1 JUU       0.434000
     44 O1         165.1860   170.0950   144.4350 o          1 JUU      -0.730000
@<TRIPOS>BOND
     1     1     2 1   
     2     1     9 1   
     3     1    19 1   
     4     1    23 1   
     5     2     3 1   
     6     2    24 1   
     7     2    25 1   
     8     3     4 ar  
     9     3     8 ar  
    10     4     5 ar  
    11     4    26 1   
    12     5     6 ar  
    13     5    27 1   
    14     6     7 ar  
    15     6    28 1   
    16     7     8 ar  
    17     7    29 1   
    18     8    30 1   
    19     9    10 1   
    20     9    21 1   
    21     9    31 1   
    22    10    20 1   
    23    10    32 1   
    24    10    33 1   
    25    11    12 1   
    26    11    20 1   
    27    11    34 1   
    28    11    35 1   
    29    12    13 ar  
    30    12    17 ar  
    31    13    14 ar  
    32    13    36 1   
    33    14    15 ar  
    34    14    37 1   
    35    15    16 ar  
    36    15    38 1   
    37    16    17 ar  
    38    16    39 1   
    39    17    40 1   
    40    18    20 1   
    41    18    22 1   
    42    18    44 1   
    43    19    41 1   
    44    19    42 1   
    45    21    43 1   
@<TRIPOS>SUBSTRUCTURE
     1 JUU         1 TEMP              0 ****  ****    0 ROOT
