@<TRIPOS>MOLECULE
JUV
   39    40     1     0     0
SMALL
abcg2


@<TRIPOS>ATOM
      1 C10          5.9670     0.1290     0.9050 ca         1 JUV      -0.183000
      2 C13         -2.3900     1.5910     0.1810 c3         1 JUV       0.030300
      3 C15         -3.4310    -0.6080    -0.4950 ca         1 JUV      -0.079300
      4 C17         -2.7460    -2.8300    -1.1840 ca         1 JUV      -0.181000
      5 C20         -4.0620    -2.5560     0.8070 ca         1 JUV      -0.181000
      6 C21         -4.0750    -1.1840     0.5960 ca         1 JUV      -0.071500
      7 C22         -2.4290     3.1200    -0.0460 c          1 JUV       0.718000
      8 O01         -0.1820     1.9390     1.6530 o          1 JUV      -0.499000
      9 C02         -0.0930     1.3120     0.6200 c          1 JUV       0.604300
     10 C03          1.1470     0.7220     0.0940 ce         1 JUV      -0.220200
     11 C04          2.3010     0.8610     0.7580 cf         1 JUV      -0.135200
     12 C05          3.6010     0.3230     0.3900 ca         1 JUV      -0.076800
     13 C06          3.8120    -0.4820    -0.7340 ca         1 JUV      -0.058500
     14 C07          5.0650    -0.9730    -1.0400 ca         1 JUV      -0.183000
     15 C08          6.1560    -0.6700    -0.2200 ca         1 JUV       0.130100
     16 O09          7.3940    -1.1210    -0.4700 oh         1 JUV      -0.540100
     17 C11          4.7050     0.6130     1.1970 ca         1 JUV      -0.058500
     18 O12         -1.1230     1.0360    -0.1650 os         1 JUV      -0.429100
     19 C14         -3.4260     0.8830    -0.6880 c3         1 JUV      -0.023100
     20 C16         -2.7680    -1.4580    -1.3750 ca         1 JUV      -0.071500
     21 C18         -3.3930    -3.3890    -0.0860 ca         1 JUV       0.109100
     22 O19         -3.3450    -4.7310     0.0630 oh         1 JUV      -0.549100
     23 O23         -1.4960     3.6330    -0.6820 o          1 JUV      -0.712500
     24 O24         -3.4410     3.6770     0.4200 o          1 JUV      -0.712500
     25 H1           6.8070     0.3670     1.5450 ha         1 JUV       0.113500
     26 H2          -2.6070     1.3800     1.2330 h1         1 JUV       0.046700
     27 H3          -2.2260    -3.4710    -1.8860 ha         1 JUV       0.105500
     28 H4          -4.5740    -2.9740     1.6670 ha         1 JUV       0.105500
     29 H5          -4.6050    -0.5540     1.3020 ha         1 JUV       0.117000
     30 H6           1.0790     0.1670    -0.8340 ha         1 JUV       0.185000
     31 H7           2.2870     1.4360     1.6800 ha         1 JUV       0.193000
     32 H8           2.9880    -0.7380    -1.3880 ha         1 JUV       0.118500
     33 H9           5.2010    -1.5960    -1.9160 ha         1 JUV       0.113500
     34 H10          7.4060    -1.6580    -1.2710 ho         1 JUV       0.460000
     35 H11          4.5730     1.2340     2.0750 ha         1 JUV       0.118500
     36 H12         -4.4010     1.2990    -0.4290 hc         1 JUV       0.063200
     37 H13         -3.2480     1.1260    -1.7390 hc         1 JUV       0.063200
     38 H14         -2.2590    -1.0420    -2.2370 ha         1 JUV       0.117000
     39 H15         -3.8170    -4.9960     0.8600 ho         1 JUV       0.453000
@<TRIPOS>BOND
     1     1    15 ar  
     2     1    17 ar  
     3     1    25 1   
     4     2     7 1   
     5     2    18 1   
     6     2    19 1   
     7     2    26 1   
     8     3     6 ar  
     9     3    19 1   
    10     3    20 ar  
    11     4    20 ar  
    12     4    21 ar  
    13     4    27 1   
    14     5     6 ar  
    15     5    21 ar  
    16     5    28 1   
    17     6    29 1   
    18     7    23 1   
    19     7    24 1   
    20     8     9 2   
    21     9    10 1   
    22     9    18 1   
    23    10    11 2   
    24    10    30 1   
    25    11    12 1   
    26    11    31 1   
    27    12    13 ar  
    28    12    17 ar  
    29    13    14 ar  
    30    13    32 1   
    31    14    15 ar  
    32    14    33 1   
    33    15    16 1   
    34    16    34 1   
    35    17    35 1   
    36    19    36 1   
    37    19    37 1   
    38    20    38 1   
    39    21    22 1   
    40    22    39 1   
@<TRIPOS>SUBSTRUCTURE
     1 JUV         1 TEMP              0 ****  ****    0 ROOT
