@<TRIPOS>MOLECULE
JUV
   39    40     1     0     0
SMALL
No Charge or Current Charge


@<TRIPOS>ATOM
      1 C10          6.1050     0.0880     0.9230 ca         1 JUV      -0.183000
      2 C13         -2.4380     1.5920     0.1350 c3         1 JUV       0.030300
      3 C15         -3.4630    -0.6590    -0.5340 ca         1 JUV      -0.079300
      4 C17         -2.8290    -2.9230    -1.1890 ca         1 JUV      -0.181000
      5 C20         -4.1560    -2.5710     0.8170 ca         1 JUV      -0.181000
      6 C21         -4.1360    -1.1840     0.5870 ca         1 JUV      -0.071500
      7 C22         -2.5470     3.1450    -0.0600 c          1 JUV       0.718000
      8 O01         -0.1960     1.9830     1.7340 o          1 JUV      -0.499000
      9 C02         -0.0850     1.3470     0.6940 c          1 JUV       0.604300
     10 C03          1.1940     0.7660     0.2010 ce         1 JUV      -0.220200
     11 C04          2.3980     0.8730     0.8390 cf         1 JUV      -0.135200
     12 C05          3.7200     0.3410     0.4460 ca         1 JUV      -0.076800
     13 C06          3.8980    -0.4070    -0.7390 ca         1 JUV      -0.058500
     14 C07          5.1690    -0.9010    -1.0850 ca         1 JUV      -0.183000
     15 C08          6.2700    -0.6530    -0.2540 ca         1 JUV       0.130100
     16 O09          7.5030    -1.1280    -0.5850 oh         1 JUV      -0.540100
     17 C11          4.8360     0.5830     1.2730 ca         1 JUV      -0.058500
     18 O12         -1.1160     1.0590    -0.1620 os         1 JUV      -0.429100
     19 C14         -3.4420     0.8480    -0.7790 c3         1 JUV      -0.023100
     20 C16         -2.8080    -1.5360    -1.4210 ca         1 JUV      -0.071500
     21 C18         -3.5020    -3.4380    -0.0720 ca         1 JUV       0.109100
     22 O19         -3.5180    -4.7830     0.1460 oh         1 JUV      -0.549100
     23 O23         -1.6550     3.7440    -0.6490 o          1 JUV      -0.712500
     24 O24         -3.5200     3.7130     0.4200 o          1 JUV      -0.712500
     25 H1           6.9580     0.2810     1.5690 ha         1 JUV       0.113500
     26 H2          -2.7070     1.3770     1.1770 h1         1 JUV       0.046700
     27 H3          -2.3220    -3.5950    -1.8760 ha         1 JUV       0.105500
     28 H4          -4.6800    -2.9630     1.6860 ha         1 JUV       0.105500
     29 H5          -4.6440    -0.5160     1.2800 ha         1 JUV       0.117000
     30 H6           1.1160     0.2240    -0.7380 ha         1 JUV       0.185000
     31 H7           2.4070     1.4310     1.7790 ha         1 JUV       0.193000
     32 H8           3.0590    -0.6120    -1.3980 ha         1 JUV       0.118500
     33 H9           5.2870    -1.4750    -2.0010 ha         1 JUV       0.113500
     34 H10          7.4280    -1.6170    -1.4320 ho         1 JUV       0.460000
     35 H11          4.7230     1.1570     2.1910 ha         1 JUV       0.118500
     36 H12         -4.4450     1.2570    -0.6100 hc         1 JUV       0.063200
     37 H13         -3.2010     1.0670    -1.8260 hc         1 JUV       0.063200
     38 H14         -2.2800    -1.1430    -2.2870 ha         1 JUV       0.117000
     39 H15         -4.0300    -4.9570     0.9650 ho         1 JUV       0.453000
@<TRIPOS>BOND
     1     1    15 ar  
     2     1    17 ar  
     3     1    25 1   
     4     2     7 1   
     5     2    18 1   
     6     2    19 1   
     7     2    26 1   
     8     3     6 ar  
     9     3    19 1   
    10     3    20 ar  
    11     4    20 ar  
    12     4    21 ar  
    13     4    27 1   
    14     5     6 ar  
    15     5    21 ar  
    16     5    28 1   
    17     6    29 1   
    18     7    23 1   
    19     7    24 1   
    20     8     9 2   
    21     9    10 1   
    22     9    18 1   
    23    10    11 2   
    24    10    30 1   
    25    11    12 1   
    26    11    31 1   
    27    12    13 ar  
    28    12    17 ar  
    29    13    14 ar  
    30    13    32 1   
    31    14    15 ar  
    32    14    33 1   
    33    15    16 1   
    34    16    34 1   
    35    17    35 1   
    36    19    36 1   
    37    19    37 1   
    38    20    38 1   
    39    21    22 1   
    40    22    39 1   
@<TRIPOS>SUBSTRUCTURE
     1 JUV         1 TEMP              0 ****  ****    0 ROOT
