@<TRIPOS>MOLECULE
JUW
   29    31     1     0     0
SMALL
abcg2


@<TRIPOS>ATOM
      1 C4          21.1400   -19.6180     3.4740 ca         1 JUW       0.277800
      2 C5          22.4530   -19.8340     3.9170 ca         1 JUW      -0.290000
      3 C6          23.1400   -20.8680     3.3200 ca         1 JUW       0.148900
      4 N1          22.6300   -21.6400     2.3670 nb         1 JUW      -0.252000
      5 N3          20.6160   -20.3820     2.5200 nb         1 JUW      -0.260000
      6 NAG         19.6480   -16.8430     5.2970 na         1 JUW      -0.077700
      7 CAH         20.6600   -17.6960     5.0240 cc         1 JUW      -0.117100
      8 CAE         18.5870   -17.1340     4.4770 ca         1 JUW      -0.064200
      9 CAD         17.3410   -16.5170     4.4010 ca         1 JUW      -0.127000
     10 CAC         16.4450   -17.0110     3.4720 ca         1 JUW      -0.094000
     11 CAB         16.7860   -18.0900     2.6430 ca         1 JUW      -0.142000
     12 CAA         18.0240   -18.6990     2.7240 ca         1 JUW      -0.046000
     13 CAF         18.9540   -18.2210     3.6550 ca         1 JUW      -0.053800
     14 CAI         20.3010   -18.5710     4.0220 cd         1 JUW      -0.235000
     15 C2          21.3770   -21.3510     2.0060 ca         1 JUW       0.376900
     16 NAP         20.8380   -22.0840     1.0060 nv         1 JUW      -1.057900
     17 H1          22.9170   -19.2350     4.6860 ha         1 JUW       0.125000
     18 H2          24.1580   -21.0890     3.6230 h4         1 JUW       0.015100
     19 H3          20.6180   -15.8080     6.8080 h1         1 JUW       0.051367
     20 H4          19.5430   -14.8160     5.8170 h1         1 JUW       0.051367
     21 H5          18.8680   -15.9360     7.0140 h1         1 JUW       0.051367
     22 H6          21.5870   -17.6240     5.5720 h4         1 JUW       0.213000
     23 H7          17.0770   -15.6850     5.0410 ha         1 JUW       0.112000
     24 H8          15.4660   -16.5590     3.3850 ha         1 JUW       0.109000
     25 H9          16.0610   -18.4550     1.9270 ha         1 JUW       0.110000
     26 H10         18.2740   -19.5320     2.0840 ha         1 JUW       0.136000
     27 H11         21.2880   -22.9460     0.7530 hn         1 JUW       0.489000
     28 H12         19.8430   -22.0390     0.8670 hn         1 JUW       0.489000
     29 CAQ         19.6660   -15.7920     6.2870 c3         1 JUW       0.062900
@<TRIPOS>BOND
     1     1     2 ar  
     2     1     5 ar  
     3     1    14 1   
     4     2     3 ar  
     5     2    17 1   
     6     3     4 ar  
     7     3    18 1   
     8     4    15 ar  
     9     5    15 ar  
    10     6     7 1   
    11     6     8 1   
    12     6    29 1   
    13     7    14 2   
    14     7    22 1   
    15     8     9 ar  
    16     8    13 ar  
    17     9    10 ar  
    18     9    23 1   
    19    10    11 ar  
    20    10    24 1   
    21    11    12 ar  
    22    11    25 1   
    23    12    13 ar  
    24    12    26 1   
    25    13    14 1   
    26    15    16 1   
    27    16    27 1   
    28    16    28 1   
    29    19    29 1   
    30    20    29 1   
    31    21    29 1   
@<TRIPOS>SUBSTRUCTURE
     1 JUW         1 TEMP              0 ****  ****    0 ROOT
