@<TRIPOS>MOLECULE
JUW
   29    31     1     0     0
SMALL
No Charge or Current Charge


@<TRIPOS>ATOM
      1 C4          21.1380   -19.6240     3.4580 ca         1 JUW       0.277800
      2 C5          22.4560   -19.8650     3.9010 ca         1 JUW      -0.290000
      3 C6          23.1780   -20.9090     3.3010 ca         1 JUW       0.148900
      4 N1          22.6380   -21.6660     2.3290 nb         1 JUW      -0.252000
      5 N3          20.6060   -20.3900     2.4830 nb         1 JUW      -0.260000
      6 NAG         19.6740   -16.8310     5.3190 na         1 JUW      -0.077700
      7 CAH         20.7540   -17.6930     5.0690 cc         1 JUW      -0.117100
      8 CAE         18.6070   -17.1290     4.4870 ca         1 JUW      -0.064200
      9 CAD         17.3470   -16.5120     4.4130 ca         1 JUW      -0.127000
     10 CAC         16.4210   -17.0040     3.4710 ca         1 JUW      -0.094000
     11 CAB         16.7670   -18.0870     2.6310 ca         1 JUW      -0.142000
     12 CAA         18.0400   -18.6900     2.7250 ca         1 JUW      -0.046000
     13 CAF         18.9480   -18.1820     3.6740 ca         1 JUW      -0.053800
     14 CAI         20.3170   -18.5380     4.0490 cd         1 JUW      -0.235000
     15 C2          21.3820   -21.3590     1.9780 ca         1 JUW       0.376900
     16 NAP         20.8320   -22.1200     1.0010 nv         1 JUW      -1.057900
     17 H1          22.9160   -19.2710     4.6820 ha         1 JUW       0.125000
     18 H2          24.1980   -21.1430     3.6010 h4         1 JUW       0.015100
     19 H3          20.5660   -15.6880     6.8550 h1         1 JUW       0.051367
     20 H4          19.4350   -14.7910     5.8000 h1         1 JUW       0.051367
     21 H5          18.8030   -15.9390     7.0210 h1         1 JUW       0.051367
     22 H6          21.6910   -17.6310     5.6130 h4         1 JUW       0.213000
     23 H7          17.0850   -15.6790     5.0610 ha         1 JUW       0.112000
     24 H8          15.4370   -16.5470     3.3890 ha         1 JUW       0.109000
     25 H9          16.0470   -18.4590     1.9070 ha         1 JUW       0.110000
     26 H10         18.2870   -19.5190     2.0710 ha         1 JUW       0.136000
     27 H11         21.2960   -22.9880     0.7420 hn         1 JUW       0.489000
     28 H12         19.8260   -22.0750     0.8510 hn         1 JUW       0.489000
     29 CAQ         19.6160   -15.7450     6.3100 c3         1 JUW       0.062900
@<TRIPOS>BOND
     1     1     2 ar  
     2     1     5 ar  
     3     1    14 1   
     4     2     3 ar  
     5     2    17 1   
     6     3     4 ar  
     7     3    18 1   
     8     4    15 ar  
     9     5    15 ar  
    10     6     7 1   
    11     6     8 1   
    12     6    29 1   
    13     7    14 2   
    14     7    22 1   
    15     8     9 ar  
    16     8    13 ar  
    17     9    10 ar  
    18     9    23 1   
    19    10    11 ar  
    20    10    24 1   
    21    11    12 ar  
    22    11    25 1   
    23    12    13 ar  
    24    12    26 1   
    25    13    14 1   
    26    15    16 1   
    27    16    27 1   
    28    16    28 1   
    29    19    29 1   
    30    20    29 1   
    31    21    29 1   
@<TRIPOS>SUBSTRUCTURE
     1 JUW         1 TEMP              0 ****  ****    0 ROOT
