@<TRIPOS>MOLECULE
JUX
   44    47     1     0     0
SMALL
abcg2


@<TRIPOS>ATOM
      1 N3         120.9810   118.9560   127.1980 nb         1 JUX      -0.290000
      2 C4         121.4570   120.7520   120.3300 cx         1 JUX      -0.124400
      3 C5         118.8660   119.1620   120.7340 cc         1 JUX       0.533300
      4 C6         117.3370   120.1670   119.5090 cd         1 JUX       0.316300
      5 C7         116.7440   121.3740   118.8670 c3         1 JUX      -0.118400
      6 C8         116.8390   118.9070   119.4570 cc         1 JUX      -0.316000
      7 C15        122.8100   118.3750   130.8450 ca         1 JUX      -0.078500
      8 C17        124.0100   116.9070   132.3270 ca         1 JUX      -0.093000
      9 N          120.0140   119.0510   121.5150 n          1 JUX      -0.349300
     10 CA         120.8750   120.2070   121.5910 cx         1 JUX       0.043700
     11 C          122.3410   120.0610   121.3100 cx         1 JUX      -0.124400
     12 CG         123.2280   117.4190   127.2500 ca         1 JUX      -0.097000
     13 CD1        122.6880   117.7660   126.0390 ca         1 JUX      -0.126000
     14 CD2        122.5920   117.8660   128.4150 cp         1 JUX       0.349500
     15 CE1        121.5240   118.5360   126.0680 ca         1 JUX       0.373300
     16 CE2        123.0880   117.5350   129.7640 cp         1 JUX      -0.154500
     17 OH         119.5710   116.9120   122.0690 o          1 JUX      -0.556100
     18 C1         120.2280   117.9160   122.2530 c          1 JUX       0.622100
     19 C16        123.2700   118.0640   132.1140 ca         1 JUX      -0.117000
     20 C18        124.2850   116.0630   131.2600 ca         1 JUX      -0.117000
     21 C19        123.8290   116.3750   129.9880 ca         1 JUX      -0.078500
     22 C9         121.2630   117.9630   123.3570 c3         1 JUX      -0.057400
     23 N2         118.4900   120.2940   120.2390 nd         1 JUX      -0.695000
     24 N4         121.5100   118.6320   128.3490 nb         1 JUX      -0.305000
     25 S1         117.8310   117.8240   120.3550 ss         1 JUX       0.063600
     26 S2         120.6540   119.0950   124.6490 ss         1 JUX      -0.283300
     27 H4         121.2400   120.2280   119.4090 hc         1 JUX       0.081700
     28 H5         121.5000   121.8280   120.2360 hc         1 JUX       0.081700
     29 H7         117.4440   121.8270   118.1630 hc         1 JUX       0.048367
     30 H8         115.8330   121.1240   118.3270 hc         1 JUX       0.048367
     31 H6         116.5000   122.1330   119.6130 hc         1 JUX       0.048367
     32 H9         115.9450   118.5660   118.9600 h4         1 JUX       0.159000
     33 H14        122.2390   119.2800   130.6870 ha         1 JUX       0.122000
     34 H16        124.3670   116.6640   133.3190 ha         1 JUX       0.115000
     35 H1         120.5820   120.9340   122.3380 h1         1 JUX       0.106700
     36 H3         122.7170   119.0870   121.0250 hc         1 JUX       0.081700
     37 H2         123.0170   120.6400   121.9260 hc         1 JUX       0.081700
     38 H13        124.1390   116.8390   127.2920 ha         1 JUX       0.134000
     39 H12        123.1600   117.4660   125.1150 ha         1 JUX       0.131000
     40 H15        123.0540   118.7290   132.9390 ha         1 JUX       0.116500
     41 H17        124.8530   115.1550   131.4170 ha         1 JUX       0.116500
     42 H18        124.0400   115.6910   129.1760 ha         1 JUX       0.122000
     43 H11        121.3280   116.9560   123.7660 h1         1 JUX       0.094200
     44 H10        122.2460   118.2700   123.0070 h1         1 JUX       0.094200
@<TRIPOS>BOND
     1     1    15 ar  
     2     1    24 ar  
     3     2    10 1   
     4     2    11 1   
     5     2    27 1   
     6     2    28 1   
     7     3     9 1   
     8     3    23 2   
     9     3    25 1   
    10     4     5 1   
    11     4     6 2   
    12     4    23 1   
    13     5    29 1   
    14     5    30 1   
    15     5    31 1   
    16     6    25 1   
    17     6    32 1   
    18     7    16 ar  
    19     7    19 ar  
    20     7    33 1   
    21     8    19 ar  
    22     8    20 ar  
    23     8    34 1   
    24     9    10 1   
    25     9    18 1   
    26    10    11 1   
    27    10    35 1   
    28    11    36 1   
    29    11    37 1   
    30    12    13 ar  
    31    12    14 ar  
    32    12    38 1   
    33    13    15 ar  
    34    13    39 1   
    35    14    16 1   
    36    14    24 ar  
    37    15    26 1   
    38    16    21 ar  
    39    17    18 2   
    40    18    22 1   
    41    19    40 1   
    42    20    21 ar  
    43    20    41 1   
    44    21    42 1   
    45    22    26 1   
    46    22    43 1   
    47    22    44 1   
@<TRIPOS>SUBSTRUCTURE
     1 JUX         1 TEMP              0 ****  ****    0 ROOT
