@<TRIPOS>MOLECULE
JUX
   44    47     1     0     0
SMALL
No Charge or Current Charge


@<TRIPOS>ATOM
      1 N3         120.4090   118.2050   127.3470 nb         1 JUX      -0.290000
      2 C4         121.7070   120.5090   120.4280 cx         1 JUX      -0.124400
      3 C5         118.7500   119.1810   120.6570 cc         1 JUX       0.533300
      4 C6         117.4200   120.4590   119.3930 cd         1 JUX       0.316300
      5 C7         117.1280   121.6700   118.5570 c3         1 JUX      -0.118400
      6 C8         116.5400   119.4410   119.6550 cc         1 JUX      -0.316000
      7 C15        122.4680   117.8650   131.0430 ca         1 JUX      -0.078500
      8 C17        124.3740   117.0590   132.3230 ca         1 JUX      -0.093000
      9 N          119.9070   118.8450   121.3850 n          1 JUX      -0.349300
     10 CA         120.9470   119.8740   121.5750 cx         1 JUX       0.043700
     11 C          122.4270   119.6050   121.3900 cx         1 JUX      -0.124400
     12 CG         123.1630   117.9410   127.2660 ca         1 JUX      -0.097000
     13 CD1        122.4480   118.1920   126.0780 ca         1 JUX      -0.126000
     14 CD2        122.4490   117.8220   128.4890 cp         1 JUX       0.349500
     15 CE1        121.0480   118.3150   126.1590 ca         1 JUX       0.373300
     16 CE2        123.1180   117.5580   129.8140 cp         1 JUX      -0.154500
     17 OH         119.4560   116.5960   121.6660 o          1 JUX      -0.556100
     18 C1         120.0100   117.6100   122.0690 c          1 JUX       0.622100
     19 C16        123.0900   117.6200   132.2790 ca         1 JUX      -0.117000
     20 C18        125.0360   116.7400   131.1280 ca         1 JUX      -0.117000
     21 C19        124.4170   116.9850   129.8900 ca         1 JUX      -0.078500
     22 C9         120.8050   117.5570   123.3890 c3         1 JUX      -0.057400
     23 N2         118.6690   120.3190   119.9720 nd         1 JUX      -0.695000
     24 N4         121.0980   117.9640   128.4840 nb         1 JUX      -0.305000
     25 S1         117.2630   118.2380   120.6780 ss         1 JUX       0.063600
     26 S2         120.0470   118.6310   124.7070 ss         1 JUX      -0.283300
     27 H4         121.5250   120.1340   119.4240 hc         1 JUX       0.081700
     28 H5         121.9030   121.5770   120.4870 hc         1 JUX       0.081700
     29 H7         117.8250   121.7420   117.7150 hc         1 JUX       0.048367
     30 H8         116.1110   121.6340   118.1490 hc         1 JUX       0.048367
     31 H6         117.2180   122.5860   119.1520 hc         1 JUX       0.048367
     32 H9         115.5180   119.3270   119.3220 h4         1 JUX       0.159000
     33 H14        121.4740   118.3070   131.0430 ha         1 JUX       0.122000
     34 H16        124.8550   116.8690   133.2810 ha         1 JUX       0.115000
     35 H1         120.6400   120.5240   122.3960 h1         1 JUX       0.106700
     36 H3         122.7340   118.6290   121.0210 hc         1 JUX       0.081700
     37 H2         123.1150   120.0610   122.0990 hc         1 JUX       0.081700
     38 H13        124.2450   117.8600   127.2390 ha         1 JUX       0.134000
     39 H12        122.9680   118.3020   125.1320 ha         1 JUX       0.131000
     40 H15        122.5740   117.8670   133.2040 ha         1 JUX       0.116500
     41 H17        126.0300   116.2990   131.1600 ha         1 JUX       0.116500
     42 H18        124.9540   116.7090   128.9860 ha         1 JUX       0.122000
     43 H11        120.8060   116.5170   123.7360 h1         1 JUX       0.094200
     44 H10        121.8410   117.8510   123.2010 h1         1 JUX       0.094200
@<TRIPOS>BOND
     1     1    15 ar  
     2     1    24 ar  
     3     2    10 1   
     4     2    11 1   
     5     2    27 1   
     6     2    28 1   
     7     3     9 1   
     8     3    23 2   
     9     3    25 1   
    10     4     5 1   
    11     4     6 2   
    12     4    23 1   
    13     5    29 1   
    14     5    30 1   
    15     5    31 1   
    16     6    25 1   
    17     6    32 1   
    18     7    16 ar  
    19     7    19 ar  
    20     7    33 1   
    21     8    19 ar  
    22     8    20 ar  
    23     8    34 1   
    24     9    10 1   
    25     9    18 1   
    26    10    11 1   
    27    10    35 1   
    28    11    36 1   
    29    11    37 1   
    30    12    13 ar  
    31    12    14 ar  
    32    12    38 1   
    33    13    15 ar  
    34    13    39 1   
    35    14    16 1   
    36    14    24 ar  
    37    15    26 1   
    38    16    21 ar  
    39    17    18 2   
    40    18    22 1   
    41    19    40 1   
    42    20    21 ar  
    43    20    41 1   
    44    21    42 1   
    45    22    26 1   
    46    22    43 1   
    47    22    44 1   
@<TRIPOS>SUBSTRUCTURE
     1 JUX         1 TEMP              0 ****  ****    0 ROOT
