@<TRIPOS>MOLECULE
JUY
   59    62     1     0     0
SMALL
bcc


@<TRIPOS>ATOM
      1 C10          2.1940     1.3620     0.2090 c3         1 JUY      -0.160400
      2 C13          5.2020    -1.0540     0.7000 c3         1 JUY      -0.136700
      3 C15          7.4060    -0.2940     1.6520 ca         1 JUY      -0.245300
      4 C17          9.3960    -0.5340     0.3520 ca         1 JUY      -0.204300
      5 C20         10.4180    -1.3990    -2.0100 ca         1 JUY       0.426200
      6 C22          8.5990    -1.1100    -0.6660 ca         1 JUY       0.651300
      7 C02         -4.1620     3.5390    -1.7040 c          1 JUY       0.929600
      8 C04         -3.5670     2.8190    -0.4590 c3         1 JUY      -0.045300
      9 C05         -2.0420     2.7870    -0.4940 c3         1 JUY      -0.095400
     10 C06         -1.4400     2.2650     0.8080 c3         1 JUY       0.093000
     11 C08          0.6910     1.1850     0.2510 c          1 JUY       0.661100
     12 C11          2.9470     0.0740     0.5150 c3         1 JUY      -0.066400
     13 C12          4.4560     0.2470     0.3960 c3         1 JUY      -0.074400
     14 C14          6.6870    -0.8870     0.5820 ca         1 JUY       0.454600
     15 C16          8.7520    -0.1200     1.5380 ca         1 JUY      -0.074000
     16 C18         10.7810    -0.4080     0.1270 ca         1 JUY      -0.068000
     17 C19         11.2980    -0.8420    -1.0610 ca         1 JUY      -0.260300
     18 C27         -5.6740    -0.2310     0.1140 cc         1 JUY       0.350200
     19 C29         -5.6670    -2.3690    -0.3460 ca         1 JUY       0.099400
     20 C30         -6.8890    -2.3020     0.3480 ca         1 JUY      -0.086100
     21 C32         -7.6740    -3.4340     0.5470 ca         1 JUY      -0.094000
     22 C33         -7.2150    -4.6340     0.0380 ca         1 JUY      -0.134000
     23 C34         -6.0000    -4.7120    -0.6560 ca         1 JUY      -0.144000
     24 C35         -5.2210    -3.5910    -0.8540 ca         1 JUY      -0.071000
     25 N07          0.0040     2.2110     0.7800 ns         1 JUY      -0.568900
     26 N21          9.1290    -1.5330    -1.8320 nb         1 JUY      -0.635000
     27 N23          7.2660    -1.2740    -0.5270 nb         1 JUY      -0.644000
     28 N24         -4.0730     1.4740    -0.3090 ns         1 JUY      -0.488900
     29 N28         -5.0080    -1.1700    -0.4560 nd         1 JUY      -0.527100
     30 O03         -3.7760     4.7130    -1.8580 o          1 JUY      -0.818800
     31 O09          0.1440     0.1780    -0.1810 o          1 JUY      -0.606100
     32 O26         -6.0240     1.9940     0.7460 o          1 JUY      -0.620100
     33 S31         -7.1810    -0.6740     0.8510 ss         1 JUY      -0.017100
     34 H1           2.4490     1.7060    -0.8000 hc         1 JUY       0.051700
     35 H2           2.5100     2.1570     0.8890 hc         1 JUY       0.051700
     36 H3           4.9520    -1.3850     1.7120 hc         1 JUY       0.063700
     37 H4           4.8730    -1.8340     0.0110 hc         1 JUY       0.063700
     38 H5           6.8790     0.0090     2.5470 ha         1 JUY       0.145000
     39 H6          10.8150    -1.7470    -2.9580 h4         1 JUY       0.020100
     40 H7          -3.8790     3.3880     0.4230 h1         1 JUY       0.058700
     41 H8          -1.7030     2.1670    -1.3310 hc         1 JUY       0.059700
     42 H9          -1.6830     3.7980    -0.6810 hc         1 JUY       0.059700
     43 H10         -1.7340     2.9150     1.6340 h1         1 JUY       0.050700
     44 H11         -1.8220     1.2700     1.0370 h1         1 JUY       0.050700
     45 H12          2.7020    -0.2640     1.5260 hc         1 JUY       0.054700
     46 H13          2.6180    -0.7140    -0.1650 hc         1 JUY       0.054700
     47 H14          4.7930     1.0350     1.0780 hc         1 JUY       0.042200
     48 H15          4.7100     0.5830    -0.6140 hc         1 JUY       0.042200
     49 H16          9.3300     0.3240     2.3390 ha         1 JUY       0.135000
     50 H17         11.4120     0.0270     0.8920 ha         1 JUY       0.135000
     51 H18         12.3530    -0.7680    -1.2830 ha         1 JUY       0.140000
     52 H19         -8.6120    -3.3800     1.0830 ha         1 JUY       0.133000
     53 H20         -7.8040    -5.5300     0.1800 ha         1 JUY       0.120000
     54 H21         -5.6690    -5.6680    -1.0410 ha         1 JUY       0.124000
     55 H22         -4.2820    -3.6430    -1.3890 ha         1 JUY       0.149000
     56 H23          0.5100     3.0300     1.0750 hn         1 JUY       0.301500
     57 H24         -3.6110     0.7330    -0.8170 hn         1 JUY       0.328500
     58 C25         -5.2700     1.2000     0.2000 c          1 JUY       0.604800
     59 O01         -4.9520     2.8980    -2.4130 o          1 JUY      -0.818800
@<TRIPOS>BOND
     1     1    11 1   
     2     1    12 1   
     3     1    34 1   
     4     1    35 1   
     5     2    13 1   
     6     2    14 1   
     7     2    36 1   
     8     2    37 1   
     9     3    14 ar  
    10     3    15 ar  
    11     3    38 1   
    12     4     6 ar  
    13     4    15 ar  
    14     4    16 ar  
    15     5    17 ar  
    16     5    26 ar  
    17     5    39 1   
    18     6    26 ar  
    19     6    27 ar  
    20     7     8 1   
    21     7    30 1   
    22     7    59 1   
    23     8     9 1   
    24     8    28 1   
    25     8    40 1   
    26     9    10 1   
    27     9    41 1   
    28     9    42 1   
    29    10    25 1   
    30    10    43 1   
    31    10    44 1   
    32    11    25 1   
    33    11    31 2   
    34    12    13 1   
    35    12    45 1   
    36    12    46 1   
    37    13    47 1   
    38    13    48 1   
    39    14    27 ar  
    40    15    49 1   
    41    16    17 ar  
    42    16    50 1   
    43    17    51 1   
    44    18    29 2   
    45    18    33 1   
    46    18    58 1   
    47    19    20 ar  
    48    19    24 ar  
    49    19    29 1   
    50    20    21 ar  
    51    20    33 1   
    52    21    22 ar  
    53    21    52 1   
    54    22    23 ar  
    55    22    53 1   
    56    23    24 ar  
    57    23    54 1   
    58    24    55 1   
    59    25    56 1   
    60    28    57 1   
    61    28    58 1   
    62    32    58 2   
@<TRIPOS>SUBSTRUCTURE
     1 JUY         1 TEMP              0 ****  ****    0 ROOT
