@<TRIPOS>MOLECULE
JUY
   59    62     1     0     0
SMALL
No Charge or Current Charge


@<TRIPOS>ATOM
      1 C10          2.2520     1.2380    -0.5850 c3         1 JUY      -0.160400
      2 C13          5.3010    -0.8270     0.8700 c3         1 JUY      -0.136700
      3 C15          7.4640     0.2180     1.7080 ca         1 JUY      -0.162000
      4 C17          9.5330    -0.3590     0.6120 ca         1 JUY      -0.139000
      5 C20         10.8080    -1.7860    -1.3480 ca         1 JUY       0.097900
      6 C22          8.8110    -1.2140    -0.2710 ca         1 JUY       0.060000
      7 C02         -4.2850     3.6970    -1.5100 c          1 JUY       0.719000
      8 C04         -3.6400     2.8120    -0.4000 c3         1 JUY      -0.045300
      9 C05         -2.1120     2.6560    -0.6220 c3         1 JUY      -0.095400
     10 C06         -1.3730     1.9510     0.5350 c3         1 JUY       0.093000
     11 C08          0.7340     1.0420    -0.5070 c          1 JUY       0.594100
     12 C11          3.0090     0.1190     0.1700 c3         1 JUY      -0.066400
     13 C12          4.5430     0.2880     0.1170 c3         1 JUY      -0.074400
     14 C14          6.8110    -0.6410     0.8100 ca         1 JUY       0.126300
     15 C16          8.8530     0.3620     1.6090 ca         1 JUY      -0.056000
     16 C18         10.9290    -0.2330     0.4890 ca         1 JUY      -0.050000
     17 C19         11.5790    -0.9640    -0.5140 ca         1 JUY      -0.177000
     18 C27         -5.2940    -0.5220     0.5810 cc         1 JUY       0.350200
     19 C29         -6.2840    -2.1950    -0.4770 ca         1 JUY       0.099400
     20 C30         -6.3840    -2.6610     0.8180 ca         1 JUY      -0.213000
     21 C32         -6.9920    -3.8890     1.1210 ca         1 JUY      -0.076000
     22 C33         -7.5110    -4.6620     0.0650 ca         1 JUY      -0.116000
     23 C34         -7.4150    -4.1970    -1.2630 ca         1 JUY      -0.126000
     24 C35         -6.7990    -2.9580    -1.5370 ca         1 JUY      -0.053000
     25 N07          0.0770     1.9210     0.3260 ns         1 JUY      -0.501900
     26 N21          9.4700    -1.9060    -1.2290 nb         1 JUY      -0.109000
     27 N23          7.4680    -1.3300    -0.1470 nb         1 JUY      -0.118000
     28 N24         -4.3320     1.5020    -0.3270 ns         1 JUY      -0.421900
     29 N28         -5.6610    -0.9650    -0.6440 nd         1 JUY      -0.527100
     30 O03         -4.6470     4.8260    -1.2080 o          1 JUY      -0.713500
     31 O09          0.1470     0.1870    -1.1550 o          1 JUY      -0.606100
     32 O26         -4.2490     1.1950     1.9350 o          1 JUY      -0.620100
     33 S31         -5.6780    -1.5520     1.9820 ss         1 JUY       0.109800
     34 H1           2.5560     1.2120    -1.6380 hc         1 JUY       0.051700
     35 H2           2.5290     2.2030    -0.1440 hc         1 JUY       0.051700
     36 H3           4.9730    -0.8420     1.9170 hc         1 JUY       0.063700
     37 H4           5.0210    -1.8010     0.4500 hc         1 JUY       0.063700
     38 H5           6.9030     0.7610     2.4640 ha         1 JUY       0.127000
     39 H6          11.2760    -2.3690    -2.1390 h4         1 JUY       0.020100
     40 H7          -3.7970     3.3380     0.5500 h1         1 JUY       0.058700
     41 H8          -1.9360     2.1090    -1.5560 hc         1 JUY       0.059700
     42 H9          -1.6770     3.6540    -0.7550 hc         1 JUY       0.059700
     43 H10         -1.5760     2.4810     1.4750 h1         1 JUY       0.050700
     44 H11         -1.7370     0.9210     0.6410 h1         1 JUY       0.050700
     45 H12          2.6830     0.1080     1.2180 hc         1 JUY       0.054700
     46 H13          2.7380    -0.8540    -0.2590 hc         1 JUY       0.054700
     47 H14          4.8150     1.2610     0.5460 hc         1 JUY       0.042200
     48 H15          4.8690     0.2990    -0.9310 hc         1 JUY       0.042200
     49 H16          9.3880     1.0210     2.2910 ha         1 JUY       0.117000
     50 H17         11.4970     0.4150     1.1540 ha         1 JUY       0.117000
     51 H18         12.6560    -0.8960    -0.6450 ha         1 JUY       0.122000
     52 H19         -7.0610    -4.2390     2.1500 ha         1 JUY       0.115000
     53 H20         -7.9860    -5.6170     0.2740 ha         1 JUY       0.102000
     54 H21         -7.8160    -4.7950    -2.0780 ha         1 JUY       0.106000
     55 H22         -6.7220    -2.5960    -2.5590 ha         1 JUY       0.131000
     56 H23          0.6500     2.5960     0.8180 hn         1 JUY       0.301500
     57 H24         -4.6650     1.0880    -1.1930 hn         1 JUY       0.328500
     58 C25         -4.5860     0.7780     0.8280 c          1 JUY       0.537800
     59 O01         -4.4900     3.1960    -2.6080 o          1 JUY      -0.713500
@<TRIPOS>BOND
     1     1    11 1   
     2     1    12 1   
     3     1    34 1   
     4     1    35 1   
     5     2    13 1   
     6     2    14 1   
     7     2    36 1   
     8     2    37 1   
     9     3    14 ar  
    10     3    15 ar  
    11     3    38 1   
    12     4     6 ar  
    13     4    15 ar  
    14     4    16 ar  
    15     5    17 ar  
    16     5    26 ar  
    17     5    39 1   
    18     6    26 ar  
    19     6    27 ar  
    20     7     8 1   
    21     7    30 1   
    22     7    59 1   
    23     8     9 1   
    24     8    28 1   
    25     8    40 1   
    26     9    10 1   
    27     9    41 1   
    28     9    42 1   
    29    10    25 1   
    30    10    43 1   
    31    10    44 1   
    32    11    25 1   
    33    11    31 2   
    34    12    13 1   
    35    12    45 1   
    36    12    46 1   
    37    13    47 1   
    38    13    48 1   
    39    14    27 ar  
    40    15    49 1   
    41    16    17 ar  
    42    16    50 1   
    43    17    51 1   
    44    18    29 2   
    45    18    33 1   
    46    18    58 1   
    47    19    20 ar  
    48    19    24 ar  
    49    19    29 1   
    50    20    21 ar  
    51    20    33 1   
    52    21    22 ar  
    53    21    52 1   
    54    22    23 ar  
    55    22    53 1   
    56    23    24 ar  
    57    23    54 1   
    58    24    55 1   
    59    25    56 1   
    60    28    57 1   
    61    28    58 1   
    62    32    58 2   
@<TRIPOS>SUBSTRUCTURE
     1 JUY         1 TEMP              0 ****  ****    0 ROOT
