@<TRIPOS>MOLECULE
JUZ
   67    71     1     0     0
SMALL
bcc


@<TRIPOS>ATOM
      1 C1           1.9280    -2.0300     0.2520 c3         1 JUZ       0.042000
      2 C3          -0.3630    -2.0780     1.0750 c          1 JUZ       0.790100
      3 O4          -0.4550    -3.2880     0.8830 o          1 JUZ      -0.657100
      4 C9           5.2350    -0.4960    -0.8250 c5         1 JUZ       0.156000
      5 C10          4.5290    -2.8190    -0.7070 c5         1 JUZ       0.101000
      6 C11          5.6400    -2.6960    -1.7390 c5         1 JUZ      -0.095400
      7 C12          6.3610    -1.4240    -1.3150 c5         1 JUZ      -0.088400
      8 C13          5.6850     0.3960     0.3080 ca         1 JUZ      -0.066300
      9 C14          6.2470     1.6560     0.0560 ca         1 JUZ       0.054900
     10 C15          6.6980     2.4380     1.1190 ca         1 JUZ      -0.141000
     11 C16          6.6020     1.9780     2.4230 ca         1 JUZ      -0.112000
     12 C20          6.9970     3.8680    -1.5050 c3         1 JUZ      -0.026000
     13 C21         -3.7870    -0.9240     1.5810 ca         1 JUZ      -0.174300
     14 C22         -4.5130    -0.2420     2.5530 ca         1 JUZ      -0.063000
     15 C24         -5.8460     0.8700     0.8700 ca         1 JUZ       0.208600
     16 C30         -5.5090     0.3680    -1.5650 c6         1 JUZ       0.198400
     17 C32         -8.2980     0.9020    -1.2760 c6         1 JUZ       0.080100
     18 C34         -2.6630    -1.8550     1.9480 c3         1 JUZ       0.171300
     19 C35         -7.7000    -0.5060    -1.2780 c6         1 JUZ       0.097400
     20 N2           0.7860    -1.3950     0.8380 ns         1 JUZ      -0.589900
     21 N5          -1.3880    -1.3140     1.5340 ns         1 JUZ      -0.589900
     22 C6           2.9680    -0.9730    -0.0810 c          1 JUZ       0.655100
     23 N7           4.1750    -1.4270    -0.4460 n          1 JUZ      -0.480800
     24 O8           2.7110     0.2210    -0.0100 o          1 JUZ      -0.602100
     25 C17          6.0630     0.7270     2.6790 ca         1 JUZ      -0.134000
     26 C18          5.6130    -0.0500     1.6220 ca         1 JUZ      -0.101000
     27 S19          6.3720     2.1830    -1.6270 ss         1 JUZ      -0.256000
     28 C23         -5.5240     0.6410     2.2130 ca         1 JUZ      -0.215000
     29 C25         -5.1290     0.1740    -0.1210 ca         1 JUZ      -0.207300
     30 C26         -4.1180    -0.6960     0.2490 ca         1 JUZ      -0.036000
     31 N27         -6.8150     1.7750     0.5230 nu         1 JUZ      -0.761600
     32 C28         -7.2490     1.9310    -0.8470 c6         1 JUZ       0.238500
     33 C29         -6.0430     1.7780    -1.7630 c6         1 JUZ      -0.115400
     34 O31         -6.4840    -0.5790    -1.9900 os         1 JUZ      -0.395600
     35 O33         -9.3900     0.9840    -0.3920 oh         1 JUZ      -0.597800
     36 H1           2.3650    -2.7740     0.9250 h1         1 JUZ       0.063700
     37 H2           1.6670    -2.5630    -0.6700 h1         1 JUZ       0.063700
     38 H3           4.8720     0.1180    -1.6550 h1         1 JUZ       0.081700
     39 H4           3.6770    -3.3840    -1.0830 h1         1 JUZ       0.051200
     40 H5           4.8830    -3.3080     0.2060 h1         1 JUZ       0.051200
     41 H6           6.2910    -3.5690    -1.7500 hc         1 JUZ       0.057200
     42 H7           5.2100    -2.5830    -2.7360 hc         1 JUZ       0.057200
     43 H8           6.9360    -0.9630    -2.1170 hc         1 JUZ       0.062200
     44 H9           7.0510    -1.6350    -0.4950 hc         1 JUZ       0.062200
     45 H10          7.1300     3.4120     0.9420 ha         1 JUZ       0.130000
     46 H11          6.9550     2.6020     3.2350 ha         1 JUZ       0.130000
     47 H12          7.0600     4.2320    -2.5280 h1         1 JUZ       0.065367
     48 H13          6.3180     4.5100    -0.9470 h1         1 JUZ       0.065367
     49 H14          7.9910     3.9020    -1.0640 h1         1 JUZ       0.065367
     50 H15         -4.2810    -0.3960     3.6000 ha         1 JUZ       0.127000
     51 H16         -4.6400     0.1920    -2.2030 h1         1 JUZ       0.085700
     52 H17         -8.6000     1.1610    -2.3020 h1         1 JUZ       0.043700
     53 H18         -2.6810    -2.0430     3.0270 h1         1 JUZ       0.056200
     54 H19         -2.7950    -2.8210     1.4600 h1         1 JUZ       0.056200
     55 H20         -7.5810    -0.8480    -0.2410 h1         1 JUZ       0.054200
     56 H21         -8.3860    -1.2020    -1.7670 h1         1 JUZ       0.054200
     57 H22          0.8000    -0.3870     0.8700 hn         1 JUZ       0.336500
     58 H23         -1.2040    -0.3570     1.7880 hn         1 JUZ       0.309500
     59 H24          5.9880     0.3570     3.6930 ha         1 JUZ       0.133000
     60 H25          5.1890    -1.0250     1.8300 ha         1 JUZ       0.133000
     61 H26         -6.0670     1.1650     2.9910 ha         1 JUZ       0.132000
     62 H27         -3.5710    -1.2160    -0.5310 ha         1 JUZ       0.138000
     63 H28         -7.4760     2.0280     1.2390 hn         1 JUZ       0.434800
     64 H29         -7.6770     2.9320    -0.9480 h1         1 JUZ       0.071700
     65 H30         -5.2760     2.5160    -1.5220 hc         1 JUZ       0.066200
     66 H31         -6.3360     1.9350    -2.8020 hc         1 JUZ       0.066200
     67 H32        -10.0930     0.4140    -0.7170 ho         1 JUZ       0.410000
@<TRIPOS>BOND
     1     1    20 1   
     2     1    22 1   
     3     1    36 1   
     4     1    37 1   
     5     2     3 2   
     6     2    20 1   
     7     2    21 1   
     8     4     7 1   
     9     4     8 1   
    10     4    23 1   
    11     4    38 1   
    12     5     6 1   
    13     5    23 1   
    14     5    39 1   
    15     5    40 1   
    16     6     7 1   
    17     6    41 1   
    18     6    42 1   
    19     7    43 1   
    20     7    44 1   
    21     8     9 ar  
    22     8    26 ar  
    23     9    10 ar  
    24     9    27 1   
    25    10    11 ar  
    26    10    45 1   
    27    11    25 ar  
    28    11    46 1   
    29    12    27 1   
    30    12    47 1   
    31    12    48 1   
    32    12    49 1   
    33    13    14 ar  
    34    13    18 1   
    35    13    30 ar  
    36    14    28 ar  
    37    14    50 1   
    38    15    28 ar  
    39    15    29 ar  
    40    15    31 1   
    41    16    29 1   
    42    16    33 1   
    43    16    34 1   
    44    16    51 1   
    45    17    19 1   
    46    17    32 1   
    47    17    35 1   
    48    17    52 1   
    49    18    21 1   
    50    18    53 1   
    51    18    54 1   
    52    19    34 1   
    53    19    55 1   
    54    19    56 1   
    55    20    57 1   
    56    21    58 1   
    57    22    23 1   
    58    22    24 2   
    59    25    26 ar  
    60    25    59 1   
    61    26    60 1   
    62    28    61 1   
    63    29    30 ar  
    64    30    62 1   
    65    31    32 1   
    66    31    63 1   
    67    32    33 1   
    68    32    64 1   
    69    33    65 1   
    70    33    66 1   
    71    35    67 1   
@<TRIPOS>SUBSTRUCTURE
     1 JUZ         1 TEMP              0 ****  ****    0 ROOT
