@<TRIPOS>MOLECULE
JUZ
   67    71     1     0     0
SMALL
No Charge or Current Charge


@<TRIPOS>ATOM
      1 C1           2.1680    -2.1950     0.0130 c3         1 JUZ       0.042000
      2 C3          -0.2920    -2.3630     0.5110 c          1 JUZ       0.656100
      3 O4          -0.2550    -3.5540     0.7670 o          1 JUZ      -0.657100
      4 C9           5.6700    -0.5630    -0.7460 c5         1 JUZ       0.156000
      5 C10          5.0060    -2.9220    -0.4600 c5         1 JUZ       0.101000
      6 C11          6.3940    -2.8200    -1.1460 c5         1 JUZ      -0.095400
      7 C12          6.9230    -1.4730    -0.5970 c5         1 JUZ      -0.088400
      8 C13          5.7650     0.5070     0.3630 ca         1 JUZ      -0.066300
      9 C14          6.1520     1.8390     0.0640 ca         1 JUZ      -0.072000
     10 C15          6.2270     2.7990     1.0950 ca         1 JUZ      -0.123000
     11 C16          5.9420     2.4460     2.4220 ca         1 JUZ      -0.094000
     12 C20          7.8700     3.5950    -1.4650 c3         1 JUZ       0.021900
     13 C21         -3.7980    -1.0570     0.8630 ca         1 JUZ      -0.174300
     14 C22         -4.0820    -0.2810     2.0030 ca         1 JUZ      -0.045000
     15 C24         -5.7580     0.9620     0.7530 ca         1 JUZ       0.347000
     16 C30         -6.2690     0.4400    -1.6860 c6         1 JUZ       0.221600
     17 C32         -8.8460     1.0930    -0.4440 c6         1 JUZ       0.103300
     18 C34         -2.7390    -2.1450     0.9230 c3         1 JUZ       0.171300
     19 C35         -8.3270    -0.3690    -0.6320 c6         1 JUZ       0.120600
     20 N2           0.8040    -1.6380     0.1460 ns         1 JUZ      -0.522900
     21 N5          -1.4310    -1.6150     0.5600 ns         1 JUZ      -0.522900
     22 C6           3.2100    -1.1170    -0.3940 c          1 JUZ       0.588100
     23 N7           4.5630    -1.5090    -0.4670 n          1 JUZ      -0.413800
     24 O8           2.8750     0.0400    -0.6270 o          1 JUZ      -0.602100
     25 C17          5.5810     1.1280     2.7310 ca         1 JUZ      -0.116000
     26 C18          5.4950     0.1680     1.7110 ca         1 JUZ      -0.083000
     27 S19          6.5440     2.3180    -1.6260 ss         1 JUZ      -0.177000
     28 C23         -5.0630     0.7230     1.9460 ca         1 JUZ      -0.197000
     29 C25         -5.4780     0.1900    -0.3930 ca         1 JUZ      -0.207300
     30 C26         -4.5000    -0.8200    -0.3350 ca         1 JUZ      -0.018000
     31 N27         -6.7420     1.9520     0.7030 nu         1 JUZ      -0.955200
     32 C28         -7.6450     2.1130    -0.4650 c6         1 JUZ       0.238500
     33 C29         -6.7970     1.8880    -1.7340 c6         1 JUZ      -0.115400
     34 O31         -7.4030    -0.4640    -1.7510 os         1 JUZ      -0.442000
     35 O33         -9.6440     1.2160     0.7580 oh         1 JUZ      -0.720000
     36 H1           2.4800    -2.6330     0.9700 h1         1 JUZ       0.063700
     37 H2           2.1640    -2.9810    -0.7510 h1         1 JUZ       0.063700
     38 H3           5.5700    -0.1490    -1.7580 h1         1 JUZ       0.081700
     39 H4           4.3320    -3.5840    -1.0180 h1         1 JUZ       0.051200
     40 H5           5.0920    -3.2940     0.5700 h1         1 JUZ       0.051200
     41 H6           7.0460    -3.6660    -0.9010 hc         1 JUZ       0.057200
     42 H7           6.2920    -2.7890    -2.2370 hc         1 JUZ       0.057200
     43 H8           7.7820    -1.0910    -1.1600 hc         1 JUZ       0.062200
     44 H9           7.2410    -1.5820     0.4470 hc         1 JUZ       0.062200
     45 H10          6.4970     3.8280     0.8770 ha         1 JUZ       0.112000
     46 H11          6.0030     3.1930     3.2110 ha         1 JUZ       0.112000
     47 H12          8.2660     3.8360    -2.4590 h1         1 JUZ       0.065367
     48 H13          7.4630     4.5100    -1.0170 h1         1 JUZ       0.065367
     49 H14          8.6820     3.2080    -0.8370 h1         1 JUZ       0.065367
     50 H15         -3.5440    -0.4570     2.9320 ha         1 JUZ       0.109000
     51 H16         -5.6230     0.2590    -2.5580 h1         1 JUZ       0.085700
     52 H17         -9.4760     1.3250    -1.3160 h1         1 JUZ       0.043700
     53 H18         -2.6870    -2.5610     1.9390 h1         1 JUZ       0.056200
     54 H19         -3.0000    -2.9610     0.2350 h1         1 JUZ       0.056200
     55 H20         -7.8320    -0.7230     0.2840 h1         1 JUZ       0.054200
     56 H21         -9.1750    -1.0410    -0.8250 h1         1 JUZ       0.054200
     57 H22          0.6710    -0.6520    -0.0480 hn         1 JUZ       0.336500
     58 H23         -1.3610    -0.6330     0.3310 hn         1 JUZ       0.309500
     59 H24          5.3670     0.8500     3.7600 ha         1 JUZ       0.115000
     60 H25          5.2190    -0.8500     1.9770 ha         1 JUZ       0.115000
     61 H26         -5.2800     1.3160     2.8300 ha         1 JUZ       0.114000
     62 H27         -4.2890    -1.4210    -1.2180 ha         1 JUZ       0.120000
     63 H28         -7.0810     2.2810     1.6070 hn         1 JUZ       0.490000
     64 H29         -8.0610     3.1330    -0.4840 h1         1 JUZ       0.071700
     65 H30         -5.9630     2.6010    -1.7740 hc         1 JUZ       0.066200
     66 H31         -7.4000     2.0470    -2.6380 hc         1 JUZ       0.066200
     67 H32        -10.4560     0.6720     0.6280 ho         1 JUZ       0.509000
@<TRIPOS>BOND
     1     1    20 1   
     2     1    22 1   
     3     1    36 1   
     4     1    37 1   
     5     2     3 2   
     6     2    20 1   
     7     2    21 1   
     8     4     7 1   
     9     4     8 1   
    10     4    23 1   
    11     4    38 1   
    12     5     6 1   
    13     5    23 1   
    14     5    39 1   
    15     5    40 1   
    16     6     7 1   
    17     6    41 1   
    18     6    42 1   
    19     7    43 1   
    20     7    44 1   
    21     8     9 ar  
    22     8    26 ar  
    23     9    10 ar  
    24     9    27 1   
    25    10    11 ar  
    26    10    45 1   
    27    11    25 ar  
    28    11    46 1   
    29    12    27 1   
    30    12    47 1   
    31    12    48 1   
    32    12    49 1   
    33    13    14 ar  
    34    13    18 1   
    35    13    30 ar  
    36    14    28 ar  
    37    14    50 1   
    38    15    28 ar  
    39    15    29 ar  
    40    15    31 1   
    41    16    29 1   
    42    16    33 1   
    43    16    34 1   
    44    16    51 1   
    45    17    19 1   
    46    17    32 1   
    47    17    35 1   
    48    17    52 1   
    49    18    21 1   
    50    18    53 1   
    51    18    54 1   
    52    19    34 1   
    53    19    55 1   
    54    19    56 1   
    55    20    57 1   
    56    21    58 1   
    57    22    23 1   
    58    22    24 2   
    59    25    26 ar  
    60    25    59 1   
    61    26    60 1   
    62    28    61 1   
    63    29    30 ar  
    64    30    62 1   
    65    31    32 1   
    66    31    63 1   
    67    32    33 1   
    68    32    64 1   
    69    33    65 1   
    70    33    66 1   
    71    35    67 1   
@<TRIPOS>SUBSTRUCTURE
     1 JUZ         1 TEMP              0 ****  ****    0 ROOT
