@<TRIPOS>MOLECULE
JV0
   59    62     1     0     0
SMALL
bcc


@<TRIPOS>ATOM
      1 C8          -2.1490     2.1300     0.8250 c3         1 JV0      -0.025800
      2 C7          -1.5210     0.7830     0.8500 cc         1 JV0      -0.059600
      3 N1          -0.1880     0.5780     0.5900 na         1 JV0       0.015800
      4 C6           0.7420     1.6210     0.3600 ca         1 JV0      -0.014200
      5 C24          1.7090     1.9110     1.3130 ca         1 JV0      -0.118500
      6 C25          2.6240     2.9250     1.0800 ca         1 JV0      -0.122500
      7 C3           2.5880     3.6730    -0.0950 ca         1 JV0      -0.071300
      8 C2           3.6120     4.7410    -0.3570 c3         1 JV0      -0.034100
      9 C1           4.8820     4.1720    -0.9880 c3         1 JV0      -0.087100
     10 C4           1.6050     3.3740    -1.0360 ca         1 JV0      -0.122500
     11 C5           0.6900     2.3550    -0.8170 ca         1 JV0      -0.118500
     12 C9          -2.0800    -0.4360     1.1620 cd         1 JV0      -0.167300
     13 C10         -3.5150    -0.6850     1.5040 c3         1 JV0       0.254100
     14 N2          -4.4260    -0.2390     0.4630 n3         1 JV0      -0.735600
     15 C11         -5.7960    -0.1920     0.9320 c6         1 JV0       0.167800
     16 C12         -6.7010     0.5470    -0.0360 c6         1 JV0       0.019700
     17 S1          -6.7880    -0.2820    -1.6450 ss         1 JV0      -0.359200
     18 C13         -5.0000    -0.3870    -1.9270 c6         1 JV0       0.019700
     19 C14         -4.2770    -1.0150    -0.7510 c6         1 JV0       0.167800
     20 C15         -1.0460    -1.3990     1.0950 cd         1 JV0      -0.170000
     21 C16          0.1200    -0.7570     0.7460 cc         1 JV0      -0.064300
     22 C17          1.4430    -1.3370     0.5300 ca         1 JV0      -0.014000
     23 C18          1.8540    -2.4110     1.3280 ca         1 JV0      -0.105000
     24 C19          3.0760    -3.0260     1.1380 ca         1 JV0      -0.129000
     25 C23          2.3180    -0.9090    -0.4680 ca         1 JV0      -0.105000
     26 C22          3.5520    -1.5130    -0.6590 ca         1 JV0      -0.129000
     27 C20          3.9480    -2.5800     0.1420 ca         1 JV0       0.035900
     28 S2           5.4860    -3.4200    -0.0080 ss         1 JV0      -0.241000
     29 C21          6.3120    -2.5610    -1.3580 c3         1 JV0      -0.028000
     30 H81C        -2.2500     2.5270    -0.1880 hc         1 JV0       0.049700
     31 H82C        -3.1520     2.0660     1.2400 hc         1 JV0       0.049700
     32 H83C        -1.5810     2.8590     1.4050 hc         1 JV0       0.049700
     33 H24          1.7430     1.3450     2.2350 ha         1 JV0       0.147000
     34 H5          -0.0570     2.1230    -1.5670 ha         1 JV0       0.147000
     35 H25          3.3750     3.1440     1.8310 ha         1 JV0       0.135500
     36 H21C         3.1880     5.5040    -1.0140 hc         1 JV0       0.048200
     37 H22C         3.8670     5.2420     0.5800 hc         1 JV0       0.048200
     38 H4           1.5560     3.9430    -1.9560 ha         1 JV0       0.135500
     39 H11C         5.3360     3.4200    -0.3430 hc         1 JV0       0.036033
     40 H12C         4.6680     3.7030    -1.9490 hc         1 JV0       0.036033
     41 H13C         5.6180     4.9580    -1.1570 hc         1 JV0       0.036033
     42 H101        -3.6460    -1.7550     1.7360 h1         1 JV0       0.034700
     43 H102        -3.7820    -0.1470     2.4200 h1         1 JV0       0.034700
     44 H15         -1.1550    -2.4630     1.2470 ha         1 JV0       0.150000
     45 H111        -6.2100    -1.1960     1.1230 h1         1 JV0       0.043700
     46 H112        -5.8100     0.3450     1.8850 h1         1 JV0       0.043700
     47 H141        -3.2130    -1.0650    -0.9970 h1         1 JV0       0.043700
     48 H142        -4.6260    -2.0540    -0.6190 h1         1 JV0       0.043700
     49 H121        -7.7190     0.5880     0.3540 h1         1 JV0       0.071700
     50 H122        -6.3480     1.5710    -0.1720 h1         1 JV0       0.071700
     51 H131        -4.8580    -0.9910    -2.8230 h1         1 JV0       0.071700
     52 H132        -4.6030     0.6110    -2.1220 h1         1 JV0       0.071700
     53 H18          1.2080    -2.7660     2.1220 ha         1 JV0       0.136000
     54 H23          2.0430    -0.0990    -1.1300 ha         1 JV0       0.136000
     55 H19          3.3570    -3.8540     1.7790 ha         1 JV0       0.136000
     56 H22          4.1900    -1.1380    -1.4480 ha         1 JV0       0.136000
     57 H211         5.7660    -2.6580    -2.2940 h1         1 JV0       0.065033
     58 H212         6.4730    -1.5090    -1.1270 h1         1 JV0       0.065033
     59 H213         7.2810    -3.0430    -1.4720 h1         1 JV0       0.065033
@<TRIPOS>BOND
     1     1     2 1   
     2     1    30 1   
     3     1    31 1   
     4     1    32 1   
     5     2     3 1   
     6     2    12 2   
     7     3     4 1   
     8     3    21 1   
     9     4     5 ar  
    10     4    11 ar  
    11     5     6 ar  
    12     5    33 1   
    13     6     7 ar  
    14     6    35 1   
    15     7     8 1   
    16     7    10 ar  
    17     8     9 1   
    18     8    36 1   
    19     8    37 1   
    20     9    39 1   
    21     9    40 1   
    22     9    41 1   
    23    10    11 ar  
    24    10    38 1   
    25    11    34 1   
    26    12    13 1   
    27    12    20 1   
    28    13    14 1   
    29    13    42 1   
    30    13    43 1   
    31    14    15 1   
    32    14    19 1   
    33    15    16 1   
    34    15    45 1   
    35    15    46 1   
    36    16    17 1   
    37    16    49 1   
    38    16    50 1   
    39    17    18 1   
    40    18    19 1   
    41    18    51 1   
    42    18    52 1   
    43    19    47 1   
    44    19    48 1   
    45    20    21 2   
    46    20    44 1   
    47    21    22 1   
    48    22    23 ar  
    49    22    25 ar  
    50    23    24 ar  
    51    23    53 1   
    52    24    27 ar  
    53    24    55 1   
    54    25    26 ar  
    55    25    54 1   
    56    26    27 ar  
    57    26    56 1   
    58    27    28 1   
    59    28    29 1   
    60    29    57 1   
    61    29    58 1   
    62    29    59 1   
@<TRIPOS>SUBSTRUCTURE
     1 JV0         1 TEMP              0 ****  ****    0 ROOT
