@<TRIPOS>MOLECULE
JV0
   59    62     1     0     0
SMALL
No Charge or Current Charge


@<TRIPOS>ATOM
      1 C8          -2.1750     2.3550     0.9250 c3         1 JV0      -0.025800
      2 C7          -1.5160     0.9980     0.9330 cc         1 JV0      -0.110300
      3 N1          -0.1730     0.7420     0.6470 na         1 JV0       0.117200
      4 C6           0.7740     1.7440     0.4220 ca         1 JV0      -0.014200
      5 C24          1.8610     1.9030     1.3030 ca         1 JV0      -0.100500
      6 C25          2.8230     2.9010     1.0680 ca         1 JV0      -0.104500
      7 C3           2.7080     3.7510    -0.0480 ca         1 JV0      -0.071300
      8 C2           3.7560     4.8240    -0.3060 c3         1 JV0      -0.034100
      9 C1           4.9350     4.2940    -1.1420 c3         1 JV0      -0.087100
     10 C4           1.6220     3.5910    -0.9290 ca         1 JV0      -0.104500
     11 C5           0.6600     2.5930    -0.6960 ca         1 JV0      -0.100500
     12 C9          -2.0630    -0.2390     1.2090 cd         1 JV0      -0.167300
     13 C10         -3.5060    -0.5340     1.5540 c3         1 JV0       0.254100
     14 N2          -4.4490    -0.2260     0.4520 n3         1 JV0      -0.735600
     15 C11         -5.8710    -0.3470     0.8970 c6         1 JV0       0.167800
     16 C12         -6.8950     0.1840    -0.1400 c6         1 JV0       0.067600
     17 S1          -6.8320    -0.6990    -1.7690 ss         1 JV0      -0.455000
     18 C13         -4.9990    -0.5830    -2.0130 c6         1 JV0       0.067600
     19 C14         -4.1730    -1.0330    -0.7790 c6         1 JV0       0.167800
     20 C15         -1.0360    -1.2180     1.1190 cd         1 JV0      -0.152000
     21 C16          0.1430    -0.6050     0.7930 cc         1 JV0      -0.115000
     22 C17          1.3980    -1.3280     0.5600 ca         1 JV0      -0.014000
     23 C18          1.7100    -2.4720     1.3210 ca         1 JV0      -0.087000
     24 C19          2.9130    -3.1680     1.1070 ca         1 JV0      -0.111000
     25 C23          2.3100    -0.9040    -0.4280 ca         1 JV0      -0.087000
     26 C22          3.5130    -1.5990    -0.6440 ca         1 JV0      -0.111000
     27 C20          3.8230    -2.7370     0.1270 ca         1 JV0      -0.091000
     28 S2           5.3400    -3.6760    -0.0900 ss         1 JV0      -0.162000
     29 C21          6.3160    -2.7660    -1.3690 c3         1 JV0       0.019900
     30 H81C        -2.4290     2.6580    -0.0970 hc         1 JV0       0.049700
     31 H82C        -3.1020     2.3490     1.5110 hc         1 JV0       0.049700
     32 H83C        -1.5180     3.1200     1.3560 hc         1 JV0       0.049700
     33 H24          1.9630     1.2510     2.1670 ha         1 JV0       0.129000
     34 H5          -0.1700     2.4730    -1.3890 ha         1 JV0       0.129000
     35 H25          3.6610     3.0100     1.7540 ha         1 JV0       0.117500
     36 H21C         3.3060     5.6780    -0.8270 hc         1 JV0       0.048200
     37 H22C         4.1410     5.2150     0.6440 hc         1 JV0       0.048200
     38 H4           1.5250     4.2370    -1.7990 ha         1 JV0       0.117500
     39 H11C         5.4340     3.4650    -0.6250 hc         1 JV0       0.036033
     40 H12C         4.5860     3.9330    -2.1170 hc         1 JV0       0.036033
     41 H13C         5.6730     5.0870    -1.3120 hc         1 JV0       0.036033
     42 H101        -3.5930    -1.5920     1.8390 h1         1 JV0       0.034700
     43 H102        -3.7630     0.0590     2.4420 h1         1 JV0       0.034700
     44 H15         -1.1730    -2.2840     1.2730 ha         1 JV0       0.132000
     45 H111        -6.1090    -1.3970     1.1250 h1         1 JV0       0.043700
     46 H112        -6.0180     0.2190     1.8290 h1         1 JV0       0.043700
     47 H141        -3.1110    -0.9560    -1.0550 h1         1 JV0       0.043700
     48 H142        -4.3720    -2.0980    -0.5880 h1         1 JV0       0.043700
     49 H121        -7.9120     0.0900     0.2630 h1         1 JV0       0.071700
     50 H122        -6.7030     1.2500    -0.3230 h1         1 JV0       0.071700
     51 H131        -4.7280    -1.1980    -2.8830 h1         1 JV0       0.071700
     52 H132        -4.7520     0.4610    -2.2500 h1         1 JV0       0.071700
     53 H18          1.0280    -2.8190     2.0930 ha         1 JV0       0.118000
     54 H23          2.0850    -0.0390    -1.0460 ha         1 JV0       0.118000
     55 H19          3.1390    -4.0460     1.7080 ha         1 JV0       0.118000
     56 H22          4.1850    -1.2390    -1.4160 ha         1 JV0       0.118000
     57 H211         5.7600    -2.7400    -2.3140 h1         1 JV0       0.065033
     58 H212         6.5130    -1.7420    -1.0280 h1         1 JV0       0.065033
     59 H213         7.2720    -3.2790    -1.5310 h1         1 JV0       0.065033
@<TRIPOS>BOND
     1     1     2 1   
     2     1    30 1   
     3     1    31 1   
     4     1    32 1   
     5     2     3 1   
     6     2    12 2   
     7     3     4 1   
     8     3    21 1   
     9     4     5 ar  
    10     4    11 ar  
    11     5     6 ar  
    12     5    33 1   
    13     6     7 ar  
    14     6    35 1   
    15     7     8 1   
    16     7    10 ar  
    17     8     9 1   
    18     8    36 1   
    19     8    37 1   
    20     9    39 1   
    21     9    40 1   
    22     9    41 1   
    23    10    11 ar  
    24    10    38 1   
    25    11    34 1   
    26    12    13 1   
    27    12    20 1   
    28    13    14 1   
    29    13    42 1   
    30    13    43 1   
    31    14    15 1   
    32    14    19 1   
    33    15    16 1   
    34    15    45 1   
    35    15    46 1   
    36    16    17 1   
    37    16    49 1   
    38    16    50 1   
    39    17    18 1   
    40    18    19 1   
    41    18    51 1   
    42    18    52 1   
    43    19    47 1   
    44    19    48 1   
    45    20    21 2   
    46    20    44 1   
    47    21    22 1   
    48    22    23 ar  
    49    22    25 ar  
    50    23    24 ar  
    51    23    53 1   
    52    24    27 ar  
    53    24    55 1   
    54    25    26 ar  
    55    25    54 1   
    56    26    27 ar  
    57    26    56 1   
    58    27    28 1   
    59    28    29 1   
    60    29    57 1   
    61    29    58 1   
    62    29    59 1   
@<TRIPOS>SUBSTRUCTURE
     1 JV0         1 TEMP              0 ****  ****    0 ROOT
