@<TRIPOS>MOLECULE
JV1
   33    35     1     0     0
SMALL
No Charge or Current Charge


@<TRIPOS>ATOM
      1 C1          -1.2530    -0.7410    -0.1800 c          1 JV1       0.585900
      2 C2          -2.5190     0.0910    -0.1550 ca         1 JV1      -0.173600
      3 C3          -3.7550    -0.5470     0.1020 ca         1 JV1       0.000000
      4 C4          -4.9640     0.1880     0.1340 ca         1 JV1      -0.190200
      5 C5          -4.9310     1.5800    -0.1050 ca         1 JV1      -0.025000
      6 C6          -3.7100     2.2160    -0.3750 ca         1 JV1      -0.136000
      7 C7          -2.5130     1.4830    -0.4040 ca         1 JV1      -0.032000
      8 N8          -6.2640    -0.5010     0.4160 no         1 JV1       0.694200
      9 O9          -6.2480    -1.7220     0.6210 o          1 JV1      -0.394500
     10 O10         -7.2970     0.1820     0.4320 o          1 JV1      -0.394500
     11 C11          0.0840    -0.0840    -0.0360 ce         1 JV1      -0.320200
     12 C12          1.2810    -0.7400    -0.1200 cf         1 JV1      -0.055200
     13 C13          2.6530    -0.2070     0.0190 ca         1 JV1      -0.087800
     14 C14          2.9000     1.1720     0.2650 ca         1 JV1      -0.079000
     15 C15          4.2190     1.6580     0.3920 ca         1 JV1      -0.107000
     16 C16          5.2720     0.7470     0.2710 ca         1 JV1       0.076100
     17 C17          5.0470    -0.5780     0.0340 ca         1 JV1       0.045100
     18 C18          3.7520    -1.0930    -0.1000 ca         1 JV1      -0.070000
     19 O19         -1.3210    -1.9550    -0.3290 o          1 JV1      -0.523100
     20 O20          6.1990    -1.2910    -0.0590 os         1 JV1      -0.341100
     21 O21          6.5940     1.0430     0.3590 os         1 JV1      -0.339100
     22 C22          7.2330    -0.2740     0.2000 c5         1 JV1       0.374600
     23 H1          -3.7700    -1.6210     0.2870 ha         1 JV1       0.173000
     24 H2          -5.8430     2.1740    -0.0900 ha         1 JV1       0.154000
     25 H3          -3.6920     3.2870    -0.5700 ha         1 JV1       0.131000
     26 H4          -1.5950     2.0120    -0.6460 ha         1 JV1       0.124000
     27 H5           0.0810     0.9790     0.1720 ha         1 JV1       0.182000
     28 H6           1.2470    -1.8150    -0.3170 ha         1 JV1       0.196000
     29 H7           2.0780     1.8760     0.3590 ha         1 JV1       0.119000
     30 H8           4.4140     2.7110     0.5790 ha         1 JV1       0.138000
     31 H9           3.6060    -2.1530    -0.2900 ha         1 JV1       0.140000
     32 H10          7.7650    -0.5290     1.1240 h2         1 JV1       0.068700
     33 H12          7.9350    -0.2430    -0.6410 h2         1 JV1       0.068700
@<TRIPOS>BOND
     1     1     2 1   
     2     1    11 1   
     3     1    19 2   
     4     2     3 ar  
     5     2     7 ar  
     6     3     4 ar  
     7     3    23 1   
     8     4     5 ar  
     9     4     8 1   
    10     5     6 ar  
    11     5    24 1   
    12     6     7 ar  
    13     6    25 1   
    14     7    26 1   
    15     8     9 1   
    16     8    10 1   
    17    11    12 2   
    18    11    27 1   
    19    12    13 1   
    20    12    28 1   
    21    13    14 ar  
    22    13    18 ar  
    23    14    15 ar  
    24    14    29 1   
    25    15    16 ar  
    26    15    30 1   
    27    16    17 ar  
    28    16    21 1   
    29    17    18 ar  
    30    17    20 1   
    31    18    31 1   
    32    20    22 1   
    33    21    22 1   
    34    22    32 1   
    35    22    33 1   
@<TRIPOS>SUBSTRUCTURE
     1 JV1         1 TEMP              0 ****  ****    0 ROOT
