@<TRIPOS>MOLECULE
JV1
   33    35     1     0     0
SMALL
bcc


@<TRIPOS>ATOM
      1 C1          -1.2000    -0.6910    -0.0020 c          1 JV1       0.585900
      2 C2          -2.4550     0.1270    -0.0190 ca         1 JV1      -0.173600
      3 C3          -3.6680    -0.5540     0.0480 ca         1 JV1      -0.018000
      4 C4          -4.8510     0.1600     0.0250 ca         1 JV1      -0.190200
      5 C5          -4.8720     1.5460    -0.0660 ca         1 JV1      -0.043000
      6 C6          -3.6660     2.2170    -0.1330 ca         1 JV1      -0.154000
      7 C7          -2.4670     1.5180    -0.1100 ca         1 JV1      -0.050000
      8 N8          -6.1140    -0.5640     0.0970 no         1 JV1       0.314200
      9 O9          -6.0750    -1.7640     0.2290 o          1 JV1      -0.204500
     10 O10         -7.1360     0.0750     0.0190 o          1 JV1      -0.204500
     11 C11          0.0920    -0.0010     0.0390 ce         1 JV1      -0.270200
     12 C12          1.2410    -0.7010     0.0170 cf         1 JV1      -0.005200
     13 C13          2.5930    -0.1730     0.0490 ca         1 JV1      -0.087800
     14 C14          2.8710     1.1940     0.1340 ca         1 JV1      -0.097000
     15 C15          4.1750     1.6810     0.1640 ca         1 JV1      -0.125000
     16 C16          5.1900     0.7530     0.1050 ca         1 JV1       0.076100
     17 C17          4.9310    -0.6070     0.0190 ca         1 JV1       0.045100
     18 C18          3.6560    -1.1010    -0.0090 ca         1 JV1      -0.088000
     19 O19         -1.2860    -1.9070    -0.0170 o          1 JV1      -0.523100
     20 O20          6.1030    -1.2820    -0.0470 os         1 JV1      -0.317900
     21 O21          6.5200     0.9610     0.1030 os         1 JV1      -0.315900
     22 C22          7.1330    -0.3250     0.1580 c5         1 JV1       0.328200
     23 H1          -3.6730    -1.6330     0.1140 ha         1 JV1       0.191000
     24 H2          -5.8020     2.0960    -0.0840 ha         1 JV1       0.172000
     25 H3          -3.6580     3.2960    -0.2040 ha         1 JV1       0.149000
     26 H4          -1.5500     2.0850    -0.1710 ha         1 JV1       0.142000
     27 H5           0.1110     1.0780     0.0890 ha         1 JV1       0.132000
     28 H6           1.1700    -1.7830    -0.0350 ha         1 JV1       0.146000
     29 H7           2.0620     1.9090     0.1790 ha         1 JV1       0.137000
     30 H8           4.3760     2.7420     0.2280 ha         1 JV1       0.156000
     31 H9           3.4630    -2.1640    -0.0790 ha         1 JV1       0.158000
     32 H10          7.5910    -0.4720     1.1400 h2         1 JV1       0.068700
     33 H12          7.8800    -0.4100    -0.6310 h2         1 JV1       0.068700
@<TRIPOS>BOND
     1     1     2 1   
     2     1    11 1   
     3     1    19 2   
     4     2     3 ar  
     5     2     7 ar  
     6     3     4 ar  
     7     3    23 1   
     8     4     5 ar  
     9     4     8 1   
    10     5     6 ar  
    11     5    24 1   
    12     6     7 ar  
    13     6    25 1   
    14     7    26 1   
    15     8     9 1   
    16     8    10 1   
    17    11    12 2   
    18    11    27 1   
    19    12    13 1   
    20    12    28 1   
    21    13    14 ar  
    22    13    18 ar  
    23    14    15 ar  
    24    14    29 1   
    25    15    16 ar  
    26    15    30 1   
    27    16    17 ar  
    28    16    21 1   
    29    17    18 ar  
    30    17    20 1   
    31    18    31 1   
    32    20    22 1   
    33    21    22 1   
    34    22    32 1   
    35    22    33 1   
@<TRIPOS>SUBSTRUCTURE
     1 JV1         1 TEMP              0 ****  ****    0 ROOT
