@<TRIPOS>MOLECULE
JV2
   67    71     1     0     0
SMALL
abcg2


@<TRIPOS>ATOM
      1 C1           6.8900     4.0140    -0.9390 c3         1 JV2       0.021900
      2 C3           6.0370     1.7260     0.4500 ca         1 JV2      -0.072000
      3 C4           6.1300     2.5500     1.5710 ca         1 JV2      -0.123000
      4 C5           5.7570     2.0830     2.8220 ca         1 JV2      -0.094000
      5 C6           5.2960     0.7840     2.9690 ca         1 JV2      -0.115000
      6 C7           5.2010    -0.0340     1.8540 ca         1 JV2      -0.082000
      7 C8           5.5550     0.4160     0.5880 ca         1 JV2      -0.065300
      8 C11          6.3040    -2.6470    -1.3720 c5         1 JV2      -0.096400
      9 C12          4.9890    -2.8890    -0.6450 c5         1 JV2       0.100000
     10 N13          4.4550    -1.5390    -0.4910 n          1 JV2      -0.412800
     11 C16          2.1640    -2.3450    -0.4090 c3         1 JV2       0.044000
     12 C18         -0.2470    -2.6200    -0.2360 c          1 JV2       0.651100
     13 C21         -2.6980    -2.6790    -0.2550 c3         1 JV2       0.171300
     14 C23         -4.7110    -1.2280    -0.6970 ca         1 JV2      -0.029000
     15 C24         -5.7530    -0.4050    -0.2930 ca         1 JV2      -0.206300
     16 C27         -7.8260     1.3470     0.5650 c6         1 JV2       0.240500
     17 C30         -5.0530    -0.7240     1.9950 ca         1 JV2      -0.199000
     18 C31         -4.0200    -1.5310     1.5620 ca         1 JV2      -0.034000
     19 C32         -7.2060     2.6860     0.1300 c6         1 JV2       0.109300
     20 C35         -5.9570     2.4420    -0.7090 c6         1 JV2       0.121600
     21 S2           6.5350     2.2620    -1.1600 ss         1 JV2      -0.177000
     22 C9           5.4900    -0.5130    -0.5990 c5         1 JV2       0.154000
     23 C10          6.7800    -1.3330    -0.7680 c5         1 JV2      -0.088400
     24 O15          2.7880    -0.0310    -0.4700 o          1 JV2      -0.603100
     25 N17          0.8420    -1.8150    -0.2590 ns         1 JV2      -0.525900
     26 O19         -0.1590    -3.8450    -0.2810 o          1 JV2      -0.658100
     27 N20         -1.4380    -1.9720    -0.1290 ns         1 JV2      -0.516900
     28 C22         -3.8320    -1.8080     0.2070 ca         1 JV2      -0.173300
     29 C25         -6.6680     0.2540    -1.2910 c6         1 JV2       0.221600
     30 C26         -8.0360     0.4680    -0.6610 c6         1 JV2      -0.108400
     31 N28         -6.9790     0.6380     1.4960 nu         1 JV2      -0.971200
     32 C29         -5.9400    -0.1450     1.0740 ca         1 JV2       0.346000
     33 O34         -8.2110     3.3780    -0.5790 oh         1 JV2      -0.712000
     34 O36         -6.1490     1.5020    -1.7430 os         1 JV2      -0.440000
     35 H1           7.7340     4.1800    -0.2730 h1         1 JV2       0.065700
     36 H2           7.1530     4.3860    -1.9280 h1         1 JV2       0.065700
     37 H3           6.0180     4.5590    -0.5830 h1         1 JV2       0.065700
     38 H4           6.4940     3.5640     1.4820 ha         1 JV2       0.112000
     39 H5           5.8360     2.7400     3.6790 ha         1 JV2       0.112000
     40 H6           5.0110     0.4080     3.9430 ha         1 JV2       0.115000
     41 H7           4.8380    -1.0480     1.9730 ha         1 JV2       0.115000
     42 H8           7.0120    -3.4620    -1.2320 hc         1 JV2       0.057700
     43 H9           6.1220    -2.5360    -2.4420 hc         1 JV2       0.057700
     44 H10          4.3110    -3.5260    -1.2120 h1         1 JV2       0.051700
     45 H11          5.1550    -3.3540     0.3310 h1         1 JV2       0.051700
     46 H12          2.2560    -2.9360    -1.3290 h1         1 JV2       0.063200
     47 H13          2.4250    -3.0190     0.4130 h1         1 JV2       0.063200
     48 H14         -2.8790    -2.9970    -1.2880 h1         1 JV2       0.053700
     49 H15         -2.6490    -3.5850     0.3500 h1         1 JV2       0.053700
     50 H17         -8.7760     1.5480     1.0640 h1         1 JV2       0.076700
     51 H18         -5.1830    -0.5320     3.0540 ha         1 JV2       0.113000
     52 H19         -3.3480    -1.9620     2.2950 ha         1 JV2       0.118000
     53 H20         -6.9010     3.2450     1.0260 h1         1 JV2       0.033700
     54 H21         -5.6420     3.3740    -1.1870 h1         1 JV2       0.050700
     55 H22         -5.1340     2.1430    -0.0460 h1         1 JV2       0.050700
     56 H23          5.2990     0.0710    -1.5070 h1         1 JV2       0.081700
     57 H24          7.2330    -1.5120     0.2090 hc         1 JV2       0.062200
     58 H25          7.5100    -0.8080    -1.3830 hc         1 JV2       0.062200
     59 H26          0.7510    -0.8110    -0.2570 hn         1 JV2       0.338500
     60 H27         -1.4640    -0.9780    -0.2920 hn         1 JV2       0.307500
     61 H28         -6.7450    -0.3670    -2.1870 h1         1 JV2       0.083700
     62 H29         -8.4790    -0.4890    -0.3740 hc         1 JV2       0.072200
     63 H30         -8.7160     0.9470    -1.3660 hc         1 JV2       0.072200
     64 H31         -6.9460     0.9800     2.4420 hn         1 JV2       0.483000
     65 H32         -7.8490     4.2140    -0.8890 ho         1 JV2       0.508000
     66 C14          3.1590    -1.1980    -0.4620 c          1 JV2       0.589100
     67 H16         -4.5880    -1.4230    -1.7580 ha         1 JV2       0.113000
@<TRIPOS>BOND
     1     1    21 1   
     2     1    35 1   
     3     1    36 1   
     4     1    37 1   
     5     2     3 ar  
     6     2     7 ar  
     7     2    21 1   
     8     3     4 ar  
     9     3    38 1   
    10     4     5 ar  
    11     4    39 1   
    12     5     6 ar  
    13     5    40 1   
    14     6     7 ar  
    15     6    41 1   
    16     7    22 1   
    17     8     9 1   
    18     8    23 1   
    19     8    42 1   
    20     8    43 1   
    21     9    10 1   
    22     9    44 1   
    23     9    45 1   
    24    10    22 1   
    25    10    66 1   
    26    11    25 1   
    27    11    46 1   
    28    11    47 1   
    29    11    66 1   
    30    12    25 1   
    31    12    26 2   
    32    12    27 1   
    33    13    27 1   
    34    13    28 1   
    35    13    48 1   
    36    13    49 1   
    37    14    15 ar  
    38    14    28 ar  
    39    14    67 1   
    40    15    29 1   
    41    15    32 ar  
    42    16    19 1   
    43    16    30 1   
    44    16    31 1   
    45    16    50 1   
    46    17    18 ar  
    47    17    32 ar  
    48    17    51 1   
    49    18    28 ar  
    50    18    52 1   
    51    19    20 1   
    52    19    33 1   
    53    19    53 1   
    54    20    34 1   
    55    20    54 1   
    56    20    55 1   
    57    22    23 1   
    58    22    56 1   
    59    23    57 1   
    60    23    58 1   
    61    24    66 2   
    62    25    59 1   
    63    27    60 1   
    64    29    30 1   
    65    29    34 1   
    66    29    61 1   
    67    30    62 1   
    68    30    63 1   
    69    31    32 1   
    70    31    64 1   
    71    33    65 1   
@<TRIPOS>SUBSTRUCTURE
     1 JV2         1 TEMP              0 ****  ****    0 ROOT
