@<TRIPOS>MOLECULE
JV2
   67    71     1     0     0
SMALL
No Charge or Current Charge


@<TRIPOS>ATOM
      1 C1           7.2930     4.0750    -0.5560 c3         1 JV2       0.021900
      2 C3           5.7550     1.8670     0.5080 ca         1 JV2      -0.072000
      3 C4           5.7930     2.5440     1.7450 ca         1 JV2      -0.123000
      4 C5           5.5780     1.8510     2.9460 ca         1 JV2      -0.094000
      5 C6           5.3240     0.4740     2.9200 ca         1 JV2      -0.115000
      6 C7           5.2750    -0.2070     1.6950 ca         1 JV2      -0.082000
      7 C8           5.4760     0.4760     0.4700 ca         1 JV2      -0.065300
      8 C11          6.2950    -2.3120    -1.8300 c5         1 JV2      -0.096400
      9 C12          4.9410    -2.6900    -1.1730 c5         1 JV2       0.100000
     10 N13          4.3980    -1.3590    -0.8210 n          1 JV2      -0.412800
     11 C16          2.0750    -2.3280    -0.4960 c3         1 JV2       0.044000
     12 C18         -0.3490    -2.8070    -0.0210 c          1 JV2       0.651100
     13 C21         -2.7900    -2.8920     0.4660 c3         1 JV2       0.171300
     14 C23         -4.6860    -1.4210    -0.3620 ca         1 JV2      -0.029000
     15 C24         -5.7340    -0.5120    -0.1310 ca         1 JV2      -0.206300
     16 C27         -7.7870     1.4980     0.3090 c6         1 JV2       0.240500
     17 C30         -5.2540    -0.5680     2.2560 ca         1 JV2      -0.199000
     18 C31         -4.2110    -1.4800     2.0260 ca         1 JV2      -0.034000
     19 C32         -7.0130     2.7480    -0.2560 c6         1 JV2       0.109300
     20 C35         -5.6860     2.2820    -0.9450 c6         1 JV2       0.121600
     21 S2           6.0570     2.7790    -1.0140 ss         1 JV2      -0.177000
     22 C9           5.4230    -0.2890    -0.8700 c5         1 JV2       0.154000
     23 C10          6.7430    -1.1070    -0.9690 c5         1 JV2      -0.088400
     24 O15          2.5970     0.0450    -0.5660 o          1 JV2      -0.603100
     25 N17          0.6790    -1.9300    -0.2100 ns         1 JV2      -0.525900
     26 O19         -0.2150    -4.0180    -0.0690 o          1 JV2      -0.658100
     27 N20         -1.5370    -2.1870     0.2280 ns         1 JV2      -0.516900
     28 C22         -3.9230    -1.9100     0.7160 ca         1 JV2      -0.173300
     29 C25         -6.5730     0.0320    -1.2980 c6         1 JV2       0.221600
     30 C26         -7.9770     0.4460    -0.8080 c6         1 JV2      -0.108400
     31 N28         -7.0420     0.8350     1.4090 nu         1 JV2      -0.971200
     32 C29         -6.0140    -0.0850     1.1830 ca         1 JV2       0.346000
     33 O34         -7.8490     3.4780    -1.1850 oh         1 JV2      -0.712000
     34 O36         -5.9200     1.1920    -1.8790 os         1 JV2      -0.440000
     35 H1           8.1510     3.6090    -0.0560 h1         1 JV2       0.065700
     36 H2           7.6380     4.5850    -1.4630 h1         1 JV2       0.065700
     37 H3           6.8360     4.8150     0.1120 h1         1 JV2       0.065700
     38 H4           5.9810     3.6120     1.7880 ha         1 JV2       0.112000
     39 H5           5.6100     2.3820     3.8950 ha         1 JV2       0.112000
     40 H6           5.1640    -0.0670     3.8500 ha         1 JV2       0.115000
     41 H7           5.0820    -1.2770     1.7010 ha         1 JV2       0.115000
     42 H8           7.0140    -3.1390    -1.8130 hc         1 JV2       0.057700
     43 H9           6.1560    -2.0190    -2.8780 hc         1 JV2       0.057700
     44 H10          4.3000    -3.2440    -1.8710 h1         1 JV2       0.051700
     45 H11          5.0870    -3.2980    -0.2700 h1         1 JV2       0.051700
     46 H12          2.1030    -2.8980    -1.4330 h1         1 JV2       0.063200
     47 H13          2.4490    -2.9640     0.3160 h1         1 JV2       0.063200
     48 H14         -3.0210    -3.5160    -0.4080 h1         1 JV2       0.053700
     49 H15         -2.6690    -3.5540     1.3340 h1         1 JV2       0.053700
     50 H17         -8.7710     1.8350     0.6700 h1         1 JV2       0.076700
     51 H18         -5.4680    -0.2370     3.2680 ha         1 JV2       0.113000
     52 H19         -3.6230    -1.8500     2.8650 ha         1 JV2       0.118000
     53 H20         -6.7510     3.4050     0.5860 h1         1 JV2       0.033700
     54 H21         -5.2320     3.1220    -1.4890 h1         1 JV2       0.050700
     55 H22         -4.9560     1.9670    -0.1860 h1         1 JV2       0.050700
     56 H23          5.2610     0.3540    -1.7440 h1         1 JV2       0.081700
     57 H24          7.1010    -1.4460     0.0100 hc         1 JV2       0.062200
     58 H25          7.5540    -0.5310    -1.4300 hc         1 JV2       0.062200
     59 H26          0.4680    -0.9410    -0.1510 hn         1 JV2       0.338500
     60 H27         -1.5470    -1.1770     0.2480 hn         1 JV2       0.307500
     61 H28         -6.6740    -0.7410    -2.0750 h1         1 JV2       0.083700
     62 H29         -8.5240    -0.4260    -0.4270 hc         1 JV2       0.072200
     63 H30         -8.5670     0.8570    -1.6370 hc         1 JV2       0.072200
     64 H31         -7.1890     1.1410     2.3720 hn         1 JV2       0.483000
     65 H32         -7.3140     4.2310    -1.5280 ho         1 JV2       0.508000
     66 C14          3.0220    -1.1040    -0.6340 c          1 JV2       0.589100
     67 H16         -4.4630    -1.7450    -1.3770 ha         1 JV2       0.113000
@<TRIPOS>BOND
     1     1    21 1   
     2     1    35 1   
     3     1    36 1   
     4     1    37 1   
     5     2     3 ar  
     6     2     7 ar  
     7     2    21 1   
     8     3     4 ar  
     9     3    38 1   
    10     4     5 ar  
    11     4    39 1   
    12     5     6 ar  
    13     5    40 1   
    14     6     7 ar  
    15     6    41 1   
    16     7    22 1   
    17     8     9 1   
    18     8    23 1   
    19     8    42 1   
    20     8    43 1   
    21     9    10 1   
    22     9    44 1   
    23     9    45 1   
    24    10    22 1   
    25    10    66 1   
    26    11    25 1   
    27    11    46 1   
    28    11    47 1   
    29    11    66 1   
    30    12    25 1   
    31    12    26 2   
    32    12    27 1   
    33    13    27 1   
    34    13    28 1   
    35    13    48 1   
    36    13    49 1   
    37    14    15 ar  
    38    14    28 ar  
    39    14    67 1   
    40    15    29 1   
    41    15    32 ar  
    42    16    19 1   
    43    16    30 1   
    44    16    31 1   
    45    16    50 1   
    46    17    18 ar  
    47    17    32 ar  
    48    17    51 1   
    49    18    28 ar  
    50    18    52 1   
    51    19    20 1   
    52    19    33 1   
    53    19    53 1   
    54    20    34 1   
    55    20    54 1   
    56    20    55 1   
    57    22    23 1   
    58    22    56 1   
    59    23    57 1   
    60    23    58 1   
    61    24    66 2   
    62    25    59 1   
    63    27    60 1   
    64    29    30 1   
    65    29    34 1   
    66    29    61 1   
    67    30    62 1   
    68    30    63 1   
    69    31    32 1   
    70    31    64 1   
    71    33    65 1   
@<TRIPOS>SUBSTRUCTURE
     1 JV2         1 TEMP              0 ****  ****    0 ROOT
