@<TRIPOS>MOLECULE
JV3
   27    28     1     0     0
SMALL
No Charge or Current Charge


@<TRIPOS>ATOM
      1 C01         25.4320     4.3340    60.5480 c3         1 JV3       0.153900
      2 C03         24.3010     5.3530    58.6750 c          1 JV3       0.606700
      3 C05         24.3970     5.7240    57.2120 ca         1 JV3      -0.143600
      4 C06         23.3160     6.3800    56.5840 ca         1 JV3      -0.048000
      5 C07         23.3890     6.7280    55.2260 ca         1 JV3      -0.127000
      6 C08         24.5380     6.4260    54.4790 ca         1 JV3      -0.066000
      7 C09         25.6430     5.7710    55.0750 cp         1 JV3      -0.062000
      8 C10         26.8710     5.4500    54.2790 cp         1 JV3       0.006000
      9 C11         28.1630     5.4640    54.8550 ca         1 JV3      -0.156500
     10 C12         29.2890     5.1580    54.0720 ca         1 JV3       0.335400
     11 C14         27.9810     4.8210    52.1940 ca         1 JV3       0.335400
     12 C15         26.8060     5.1160    52.9060 ca         1 JV3      -0.156500
     13 C16         25.5510     5.4270    56.4490 ca         1 JV3      -0.040000
     14 N13         29.2090     4.8400    52.7600 nb         1 JV3      -0.662000
     15 O02         25.4220     4.7290    59.1640 os         1 JV3      -0.440100
     16 O04         23.3110     5.5910    59.3560 o          1 JV3      -0.487000
     17 H012        26.3830     3.8500    60.8010 h1         1 JV3       0.050033
     18 H011        25.3090     5.2050    61.2050 h1         1 JV3       0.050033
     19 H013        24.6220     3.6230    60.7590 h1         1 JV3       0.050033
     20 H061        22.4160     6.6220    57.1460 ha         1 JV3       0.138000
     21 H071        22.5520     7.2350    54.7510 ha         1 JV3       0.122000
     22 H081        24.5760     6.7180    53.4330 ha         1 JV3       0.119000
     23 H111        28.3060     5.7250    55.8990 ha         1 JV3       0.125000
     24 H121        30.2870     5.1720    54.5080 h4         1 JV3       0.020100
     25 H141        27.9370     4.5580    51.1380 h4         1 JV3       0.020100
     26 H151        25.8520     5.0690    52.3880 ha         1 JV3       0.125000
     27 H161        26.3850     4.9090    56.9140 ha         1 JV3       0.134000
@<TRIPOS>BOND
     1     1    15 1   
     2     1    17 1   
     3     1    18 1   
     4     1    19 1   
     5     2     3 1   
     6     2    15 1   
     7     2    16 2   
     8     3     4 ar  
     9     3    13 ar  
    10     4     5 ar  
    11     4    20 1   
    12     5     6 ar  
    13     5    21 1   
    14     6     7 ar  
    15     6    22 1   
    16     7     8 1   
    17     7    13 ar  
    18     8     9 ar  
    19     8    12 ar  
    20     9    10 ar  
    21     9    23 1   
    22    10    14 ar  
    23    10    24 1   
    24    11    12 ar  
    25    11    14 ar  
    26    11    25 1   
    27    12    26 1   
    28    13    27 1   
@<TRIPOS>SUBSTRUCTURE
     1 JV3         1 TEMP              0 ****  ****    0 ROOT
