@<TRIPOS>MOLECULE
JV3
   27    28     1     0     0
SMALL
abcg2


@<TRIPOS>ATOM
      1 C01         25.3950     4.3330    60.4620 c3         1 JV3       0.153900
      2 C03         24.3210     5.3410    58.6270 c          1 JV3       0.606700
      3 C05         24.4450     5.7170    57.1940 ca         1 JV3      -0.143600
      4 C06         23.3760     6.3780    56.5940 ca         1 JV3      -0.048000
      5 C07         23.4490     6.7380    55.2590 ca         1 JV3      -0.127000
      6 C08         24.5810     6.4370    54.5160 ca         1 JV3      -0.066000
      7 C09         25.6600     5.7760    55.1020 cp         1 JV3      -0.062000
      8 C10         26.8630     5.4540    54.3120 cp         1 JV3       0.006000
      9 C11         28.1410     5.5310    54.8620 ca         1 JV3      -0.156500
     10 C12         29.2370     5.2150    54.0750 ca         1 JV3       0.335400
     11 C14         27.9320     4.7630    52.2790 ca         1 JV3       0.335400
     12 C15         26.7730     5.0570    52.9790 ca         1 JV3      -0.156500
     13 C16         25.5820     5.4230    56.4470 ca         1 JV3      -0.040000
     14 N13         29.1490     4.8370    52.8060 nb         1 JV3      -0.662000
     15 O02         25.4060     4.7480    59.0970 os         1 JV3      -0.440100
     16 O04         23.3350     5.5560    59.2890 o          1 JV3      -0.487000
     17 H012        26.3620     3.8730    60.6400 h1         1 JV3       0.050033
     18 H011        25.2680     5.1810    61.1350 h1         1 JV3       0.050033
     19 H013        24.6070     3.6040    60.6500 h1         1 JV3       0.050033
     20 H061        22.4900     6.6110    57.1690 ha         1 JV3       0.138000
     21 H071        22.6230     7.2580    54.7940 ha         1 JV3       0.122000
     22 H081        24.6280     6.7380    53.4770 ha         1 JV3       0.119000
     23 H111        28.2940     5.8510    55.8850 ha         1 JV3       0.125000
     24 H121        30.2350     5.2770    54.4950 h4         1 JV3       0.020100
     25 H141        27.8690     4.4490    51.2430 h4         1 JV3       0.020100
     26 H151        25.8140     4.9560    52.4870 ha         1 JV3       0.125000
     27 H161        26.4090     4.8940    56.9040 ha         1 JV3       0.134000
@<TRIPOS>BOND
     1     1    15 1   
     2     1    17 1   
     3     1    18 1   
     4     1    19 1   
     5     2     3 1   
     6     2    15 1   
     7     2    16 2   
     8     3     4 ar  
     9     3    13 ar  
    10     4     5 ar  
    11     4    20 1   
    12     5     6 ar  
    13     5    21 1   
    14     6     7 ar  
    15     6    22 1   
    16     7     8 1   
    17     7    13 ar  
    18     8     9 ar  
    19     8    12 ar  
    20     9    10 ar  
    21     9    23 1   
    22    10    14 ar  
    23    10    24 1   
    24    11    12 ar  
    25    11    14 ar  
    26    11    25 1   
    27    12    26 1   
    28    13    27 1   
@<TRIPOS>SUBSTRUCTURE
     1 JV3         1 TEMP              0 ****  ****    0 ROOT
