@<TRIPOS>MOLECULE
JV5
   35    37     1     0     0
SMALL
No Charge or Current Charge


@<TRIPOS>ATOM
      1 C4           5.5960    -1.9740    -0.0450 ca         1 JV5      -0.078000
      2 C5           4.2790    -1.4860    -0.0170 ca         1 JV5      -0.197000
      3 C6           4.0360    -0.0930    -0.0310 ca         1 JV5       0.132100
      4 C7           1.5760    -0.4160     0.0410 c3         1 JV5       0.077600
      5 C8           0.2670     0.4060     0.0650 c          1 JV5       0.607100
      6 C10         -2.7690     1.2640     0.1450 ca         1 JV5      -0.077000
      7 C13         -4.5490    -0.8780     0.2090 ca         1 JV5       0.033400
      8 C1           5.1240     0.8070    -0.0750 ca         1 JV5      -0.093300
      9 C2           6.4410     0.3070    -0.1040 ca         1 JV5      -0.080000
     10 C3           6.6750    -1.0780    -0.0890 ca         1 JV5      -0.138000
     11 C9          -2.2650    -0.0690     0.1420 ca         1 JV5      -0.046000
     12 C12         -5.0090     0.3940     0.2110 ca         1 JV5      -0.095200
     13 N           -0.8760    -0.3850     0.1070 ns         1 JV5      -0.159000
     14 C            4.8840     2.3130    -0.0920 c3         1 JV5      -0.037800
     15 O            2.7540     0.4240    -0.0040 os         1 JV5      -0.315100
     16 C11         -4.1600     1.5050     0.1800 ca         1 JV5      -0.093000
     17 C14         -3.1760    -1.1530     0.1740 ca         1 JV5      -0.087000
     18 N1          -6.3710     0.3150     0.2480 na         1 JV5      -0.064400
     19 N2          -6.7280    -1.0300     0.2680 nc         1 JV5      -0.157400
     20 N3          -5.6140    -1.7640     0.2440 nd         1 JV5      -0.227400
     21 O1           0.2510     1.6340     0.0470 o          1 JV5      -0.543100
     22 H1           5.7800    -3.0460    -0.0340 ha         1 JV5       0.112000
     23 H2           3.4640    -2.2030     0.0170 ha         1 JV5       0.110000
     24 H3           1.5860    -1.0460     0.9390 h1         1 JV5       0.050200
     25 H4           1.5370    -1.0730    -0.8370 h1         1 JV5       0.050200
     26 H6           7.2870     0.9910    -0.1370 ha         1 JV5       0.115000
     27 H7           7.6950    -1.4570    -0.1110 ha         1 JV5       0.116000
     28 H8          -0.6870    -1.3800     0.1160 hn         1 JV5       0.152000
     29 H9           4.3410     2.6340     0.8050 hc         1 JV5       0.046700
     30 H10          5.8240     2.8770    -0.1260 hc         1 JV5       0.046700
     31 H11          4.2920     2.6060    -0.9660 hc         1 JV5       0.046700
     32 H12         -4.5540     2.5200     0.1830 ha         1 JV5       0.130000
     33 H13         -2.8250    -2.1820     0.1730 ha         1 JV5       0.133000
     34 H14         -7.0550     1.0660     0.2600 hn         1 JV5       0.383000
     35 H5          -2.1060     2.1220     0.1210 ha         1 JV5       0.145000
@<TRIPOS>BOND
     1     1     2 ar  
     2     1    10 ar  
     3     1    22 1   
     4     2     3 ar  
     5     2    23 1   
     6     3     8 ar  
     7     3    15 1   
     8     4     5 1   
     9     4    15 1   
    10     4    24 1   
    11     4    25 1   
    12     5    13 1   
    13     5    21 2   
    14     6    11 ar  
    15     6    16 ar  
    16     6    35 1   
    17     7    12 ar  
    18     7    17 ar  
    19     7    20 1   
    20     8     9 ar  
    21     8    14 1   
    22     9    10 ar  
    23     9    26 1   
    24    10    27 1   
    25    11    13 1   
    26    11    17 ar  
    27    12    16 ar  
    28    12    18 1   
    29    13    28 1   
    30    14    29 1   
    31    14    30 1   
    32    14    31 1   
    33    16    32 1   
    34    17    33 1   
    35    18    19 1   
    36    18    34 1   
    37    19    20 2   
@<TRIPOS>SUBSTRUCTURE
     1 JV5         1 TEMP              0 ****  ****    0 ROOT
