@<TRIPOS>MOLECULE
JV5
   35    37     1     0     0
SMALL
abcg2


@<TRIPOS>ATOM
      1 C4           5.5780    -1.8810     0.0420 ca         1 JV5      -0.078000
      2 C5           4.2410    -1.4980     0.1050 ca         1 JV5      -0.197000
      3 C6           3.9030    -0.1530     0.0050 ca         1 JV5       0.132100
      4 C7           1.5810    -0.5950     0.1440 c3         1 JV5       0.077600
      5 C8           0.2850     0.1940     0.0300 c          1 JV5       0.607100
      6 C10         -2.5570     1.1780     0.5160 ca         1 JV5      -0.077000
      7 C13         -4.4160    -0.7810    -0.0310 ca         1 JV5       0.033400
      8 C1           4.8960     0.8260    -0.1550 ca         1 JV5      -0.093300
      9 C2           6.2180     0.4110    -0.2130 ca         1 JV5      -0.080000
     10 C3           6.5710    -0.9320    -0.1170 ca         1 JV5      -0.138000
     11 C9          -2.1470    -0.1620     0.2940 ca         1 JV5      -0.046000
     12 C12         -4.8050     0.5430     0.1710 ca         1 JV5      -0.095200
     13 N           -0.7970    -0.5360     0.3960 ns         1 JV5      -0.159000
     14 C            4.5240     2.2760    -0.2560 c3         1 JV5      -0.037800
     15 O            2.6360     0.3150     0.0530 os         1 JV5      -0.315100
     16 C11         -3.8790     1.5500     0.4510 ca         1 JV5      -0.093000
     17 C14         -3.0700    -1.1500     0.0200 ca         1 JV5      -0.087000
     18 N1          -6.1490     0.4930     0.0340 na         1 JV5      -0.064400
     19 N2          -6.5500    -0.7400    -0.2270 nc         1 JV5      -0.157400
     20 N3          -5.5380    -1.5210    -0.2720 nd         1 JV5      -0.227400
     21 O1           0.2480     1.3390    -0.3640 o          1 JV5      -0.543100
     22 H1           5.8280    -2.9310     0.1200 ha         1 JV5       0.112000
     23 H2           3.4850    -2.2610     0.2320 ha         1 JV5       0.110000
     24 H3           1.5980    -1.1520     1.0890 h1         1 JV5       0.050200
     25 H4           1.6050    -1.3340    -0.6690 h1         1 JV5       0.050200
     26 H6           6.9920     1.1590    -0.3370 ha         1 JV5       0.115000
     27 H7           7.6110    -1.2250    -0.1660 ha         1 JV5       0.116000
     28 H8          -0.6340    -1.5040     0.6340 hn         1 JV5       0.152000
     29 H9           4.0510     2.6360     0.6590 hc         1 JV5       0.046700
     30 H10          5.4080     2.8870    -0.4330 hc         1 JV5       0.046700
     31 H11          3.8200     2.4590    -1.0690 hc         1 JV5       0.046700
     32 H12         -4.1770     2.5740     0.6240 ha         1 JV5       0.130000
     33 H13         -2.7660    -2.1750    -0.1500 ha         1 JV5       0.133000
     34 H14         -6.8290     1.2340     0.1100 hn         1 JV5       0.383000
     35 H5          -1.8220     1.9290     0.7550 ha         1 JV5       0.145000
@<TRIPOS>BOND
     1     1     2 ar  
     2     1    10 ar  
     3     1    22 1   
     4     2     3 ar  
     5     2    23 1   
     6     3     8 ar  
     7     3    15 1   
     8     4     5 1   
     9     4    15 1   
    10     4    24 1   
    11     4    25 1   
    12     5    13 1   
    13     5    21 2   
    14     6    11 ar  
    15     6    16 ar  
    16     6    35 1   
    17     7    12 ar  
    18     7    17 ar  
    19     7    20 1   
    20     8     9 ar  
    21     8    14 1   
    22     9    10 ar  
    23     9    26 1   
    24    10    27 1   
    25    11    13 1   
    26    11    17 ar  
    27    12    16 ar  
    28    12    18 1   
    29    13    28 1   
    30    14    29 1   
    31    14    30 1   
    32    14    31 1   
    33    16    32 1   
    34    17    33 1   
    35    18    19 1   
    36    18    34 1   
    37    19    20 2   
@<TRIPOS>SUBSTRUCTURE
     1 JV5         1 TEMP              0 ****  ****    0 ROOT
