@<TRIPOS>MOLECULE
JV6
   39    40     1     0     0
SMALL
bcc


@<TRIPOS>ATOM
      1 N1          20.3840    28.0760    80.5470 ns         1 JV6      -0.558400
      2 C1          18.4930    26.3210    82.9570 ca         1 JV6       0.733100
      3 N2          22.0360    27.9150    78.9700 ns         1 JV6      -0.687300
      4 N3          21.4020    25.9340    76.6440 na         1 JV6       0.120400
      5 C2          17.6050    27.2960    83.3790 ca         1 JV6      -0.530600
      6 O2          21.5610    26.1190    80.2630 o          1 JV6      -0.485100
      7 C3          17.7550    28.5390    82.7610 ca         1 JV6       0.733100
      8 O3          24.2510    26.6700    79.1360 o          1 JV6      -0.589800
      9 N           18.6690    28.7780    81.8410 nb         1 JV6      -0.812500
     10 C           17.5710    24.6950    84.4060 c3         1 JV6       0.134200
     11 O           18.5180    25.0810    83.4210 os         1 JV6      -0.415600
     12 C10         22.9610    24.5120    77.3330 cc         1 JV6      -0.118900
     13 C11         24.2080    23.8220    77.8520 c          1 JV6       0.951200
     14 C4          17.0590    30.7840    82.5200 c3         1 JV6       0.134200
     15 C5          19.4570    27.7530    81.5230 ca         1 JV6       0.863900
     16 C6          21.3310    27.2670    79.9770 c          1 JV6       0.811100
     17 C7          22.5540    25.8300    77.3570 cd         1 JV6      -0.316800
     18 C9          21.9490    23.8940    76.5830 cc         1 JV6       0.292200
     19 N4          21.0360    24.7570    76.1740 nd         1 JV6      -0.532800
     20 N5          19.4210    26.5440    82.0270 nb         1 JV6      -0.812500
     21 O1          16.9300    29.5030    83.1290 os         1 JV6      -0.415600
     22 O5          23.9970    22.7880    78.5070 o          1 JV6      -0.799300
     23 O6          25.2930    24.3250    77.5200 o          1 JV6      -0.799300
     24 S           23.3090    27.1800    78.1710 sy         1 JV6       1.380900
     25 H1          20.3120    29.0350    80.2380 hn         1 JV6       0.331500
     26 H2          21.8200    28.8580    78.6660 hn         1 JV6       0.324500
     27 H3          16.8460    27.1380    84.1310 ha         1 JV6       0.162000
     28 H4          17.7710    23.6510    84.6280 h1         1 JV6       0.045867
     29 H5          17.6810    25.2810    85.3210 h1         1 JV6       0.045867
     30 H6          16.5480    24.7910    84.0380 h1         1 JV6       0.045867
     31 H7          16.2780    31.3980    82.9600 h1         1 JV6       0.045867
     32 H8          18.0310    31.2310    82.7280 h1         1 JV6       0.045867
     33 H9          16.9140    30.7330    81.4410 h1         1 JV6       0.045867
     34 H10         19.9600    26.8680    75.5170 h1         1 JV6       0.045367
     35 H11         19.9190    27.3100    77.2300 h1         1 JV6       0.045367
     36 H12         21.1830    27.9610    76.1640 h1         1 JV6       0.045367
     37 H13         21.8730    22.8520    76.3120 h4         1 JV6       0.037100
     38 O4          23.7310    28.1680    77.1980 o          1 JV6      -0.589800
     39 C8          20.5710    27.0910    76.3860 c3         1 JV6       0.044600
@<TRIPOS>BOND
     1     1    15 1   
     2     1    16 1   
     3     1    25 1   
     4     2     5 ar  
     5     2    11 1   
     6     2    20 ar  
     7     3    16 1   
     8     3    24 1   
     9     3    26 1   
    10     4    17 1   
    11     4    19 1   
    12     4    39 1   
    13     5     7 ar  
    14     5    27 1   
    15     6    16 2   
    16     7     9 ar  
    17     7    21 1   
    18     8    24 2   
    19     9    15 ar  
    20    10    11 1   
    21    10    28 1   
    22    10    29 1   
    23    10    30 1   
    24    12    13 1   
    25    12    17 2   
    26    12    18 1   
    27    13    22 1   
    28    13    23 1   
    29    14    21 1   
    30    14    31 1   
    31    14    32 1   
    32    14    33 1   
    33    15    20 ar  
    34    17    24 1   
    35    18    19 2   
    36    18    37 1   
    37    24    38 2   
    38    34    39 1   
    39    35    39 1   
    40    36    39 1   
@<TRIPOS>SUBSTRUCTURE
     1 JV6         1 TEMP              0 ****  ****    0 ROOT
