@<TRIPOS>MOLECULE
JV6
   39    40     1     0     0
SMALL
No Charge or Current Charge


@<TRIPOS>ATOM
      1 N1          20.1120    28.0490    80.2830 ns         1 JV6      -0.324900
      2 C1          18.0900    26.3830    82.7010 ca         1 JV6       0.404800
      3 N2          21.7750    27.8510    78.7740 ns         1 JV6      -0.620300
      4 N3          21.4140    25.3000    76.9260 na         1 JV6       0.141800
      5 C2          17.5300    27.4890    83.3680 ca         1 JV6      -0.382000
      6 O2          21.5960    26.3060    80.4270 o          1 JV6      -0.485100
      7 C3          17.8910    28.7700    82.9380 ca         1 JV6       0.404800
      8 O3          24.1680    27.1490    79.0600 o          1 JV6      -0.519000
      9 N           18.7500    28.9470    81.9180 nb         1 JV6      -0.286500
     10 C           16.8770    24.7830    84.1360 c3         1 JV6       0.157400
     11 O           17.7840    25.0880    83.0590 os         1 JV6      -0.438800
     12 C10         23.4980    24.6090    77.0770 cc         1 JV6      -0.053600
     13 C11         24.9770    24.4140    77.1820 c          1 JV6       0.740600
     14 C4          17.6540    31.1960    83.2180 c3         1 JV6       0.157400
     15 C5          19.2310    27.8300    81.3550 ca         1 JV6       0.337900
     16 C6          21.1990    27.3170    79.8750 c          1 JV6       0.677100
     17 C7          22.6990    25.7090    77.3380 cd         1 JV6      -0.367500
     18 C9          22.6390    23.6070    76.6150 cc         1 JV6       0.226900
     19 N4          21.3820    23.9780    76.5060 nd         1 JV6      -0.532800
     20 N5          18.9470    26.5580    81.6820 nb         1 JV6      -0.286500
     21 O1          17.3350    29.8420    83.5970 os         1 JV6      -0.438800
     22 O5          25.4270    23.3030    76.9340 o          1 JV6      -0.694000
     23 O6          25.7050    25.3580    77.4460 o          1 JV6      -0.694000
     24 S           23.1600    27.3140    78.0080 sy         1 JV6       1.239300
     25 H1          19.9330    28.8970    79.7650 hn         1 JV6       0.165000
     26 H2          21.4180    28.6960    78.3640 hn         1 JV6       0.324500
     27 H3          16.8360    27.3820    84.1920 ha         1 JV6       0.144000
     28 H4          16.7760    23.6960    84.2510 h1         1 JV6       0.045867
     29 H5          17.2460    25.1910    85.0860 h1         1 JV6       0.045867
     30 H6          15.8800    25.1960    83.9370 h1         1 JV6       0.045867
     31 H7          17.1160    31.9080    83.8560 h1         1 JV6       0.045867
     32 H8          18.7290    31.3890    83.3260 h1         1 JV6       0.045867
     33 H9          17.3680    31.3880    82.1760 h1         1 JV6       0.045867
     34 H10         19.4810    25.6510    76.1430 h1         1 JV6       0.045367
     35 H11         19.7040    26.1350    77.8460 h1         1 JV6       0.045367
     36 H12         20.4120    27.1210    76.5230 h1         1 JV6       0.045367
     37 H13         22.9050    22.6020    76.3170 h4         1 JV6       0.037100
     38 O4          23.3640    28.2440    76.8940 o          1 JV6      -0.519000
     39 C8          20.1790    26.1040    76.8580 c3         1 JV6       0.073900
@<TRIPOS>BOND
     1     1    15 1   
     2     1    16 1   
     3     1    25 1   
     4     2     5 ar  
     5     2    11 1   
     6     2    20 ar  
     7     3    16 1   
     8     3    24 1   
     9     3    26 1   
    10     4    17 1   
    11     4    19 1   
    12     4    39 1   
    13     5     7 ar  
    14     5    27 1   
    15     6    16 2   
    16     7     9 ar  
    17     7    21 1   
    18     8    24 2   
    19     9    15 ar  
    20    10    11 1   
    21    10    28 1   
    22    10    29 1   
    23    10    30 1   
    24    12    13 1   
    25    12    17 2   
    26    12    18 1   
    27    13    22 1   
    28    13    23 1   
    29    14    21 1   
    30    14    31 1   
    31    14    32 1   
    32    14    33 1   
    33    15    20 ar  
    34    17    24 1   
    35    18    19 2   
    36    18    37 1   
    37    24    38 2   
    38    34    39 1   
    39    35    39 1   
    40    36    39 1   
@<TRIPOS>SUBSTRUCTURE
     1 JV6         1 TEMP              0 ****  ****    0 ROOT
