@<TRIPOS>MOLECULE
JV8
   38    40     1     0     0
SMALL
No Charge or Current Charge


@<TRIPOS>ATOM
      1 C1          -5.2060     1.0820    -0.0150 ca         1 JV8      -0.091300
      2 C4          -6.0340    -1.6130     0.0550 ca         1 JV8      -0.078000
      3 C5          -4.6640    -1.3000     0.0490 ca         1 JV8      -0.197000
      4 C6          -4.2430     0.0490     0.0150 ca         1 JV8       0.131100
      5 C7          -1.8450    -0.5890     0.0360 c3         1 JV8       0.076600
      6 C10          2.7680    -1.9270     0.0810 ca         1 JV8      -0.160000
      7 C11          4.1730    -1.8850     0.0830 ca         1 JV8      -0.050000
      8 C13          6.2410    -0.5640     0.0530 ca         1 JV8       0.368900
      9 C14          6.1850     1.7520    -0.0070 ca         1 JV8       0.328900
     10 C15          4.7790     1.7650    -0.0110 ca         1 JV8      -0.150000
     11 C16          4.0850     0.5450     0.0190 ca         1 JV8       0.017000
     12 C17          2.6790     0.5010     0.0180 ca         1 JV8      -0.139000
     13 N            0.5910    -0.8760     0.0490 ns         1 JV8      -0.153000
     14 C           -4.7740     2.5450    -0.0530 c3         1 JV8      -0.038800
     15 O           -2.9050     0.3960     0.0080 os         1 JV8      -0.313100
     16 C12          4.8340    -0.6450     0.0520 ca         1 JV8      -0.125000
     17 C2          -6.5770     0.7570    -0.0090 ca         1 JV8      -0.080000
     18 C3          -6.9880    -0.5850     0.0250 ca         1 JV8      -0.138000
     19 C8          -0.4410     0.0560     0.0220 c          1 JV8       0.608100
     20 C9           2.0070    -0.7420     0.0480 ca         1 JV8      -0.005000
     21 N1           6.9130     0.6120     0.0240 nb         1 JV8      -0.668000
     22 O1          -0.2670     1.2720    -0.0090 o          1 JV8      -0.535100
     23 H1          -6.3550    -2.6530     0.0810 ha         1 JV8       0.112000
     24 H2          -3.9480    -2.1160     0.0730 ha         1 JV8       0.110000
     25 H3          -1.9160    -1.2060     0.9420 h1         1 JV8       0.050700
     26 H4          -1.9120    -1.2520    -0.8350 h1         1 JV8       0.050700
     27 H6           4.7430    -2.8120     0.1080 ha         1 JV8       0.119000
     28 H7           6.8510    -1.4670     0.0770 h4         1 JV8       0.016100
     29 H8           6.7460     2.6850    -0.0300 h4         1 JV8       0.019100
     30 H9           4.2490     2.7130    -0.0360 ha         1 JV8       0.128000
     31 H10          2.1340     1.4380    -0.0080 ha         1 JV8       0.153000
     32 H11          0.2760    -1.8370     0.0730 hn         1 JV8       0.150000
     33 H12         -4.1690     2.7520    -0.9430 hc         1 JV8       0.047033
     34 H13         -5.6330     3.2250    -0.0730 hc         1 JV8       0.047033
     35 H14         -4.1730     2.7990     0.8280 hc         1 JV8       0.047033
     36 H15         -7.3280     1.5450    -0.0320 ha         1 JV8       0.115000
     37 H16         -8.0490    -0.8290     0.0290 ha         1 JV8       0.116000
     38 H5           2.2680    -2.8930     0.1050 ha         1 JV8       0.111000
@<TRIPOS>BOND
     1     1     4 ar  
     2     1    14 1   
     3     1    17 ar  
     4     2     3 ar  
     5     2    18 ar  
     6     2    23 1   
     7     3     4 ar  
     8     3    24 1   
     9     4    15 1   
    10     5    15 1   
    11     5    19 1   
    12     5    25 1   
    13     5    26 1   
    14     6     7 ar  
    15     6    20 ar  
    16     6    38 1   
    17     7    16 ar  
    18     7    27 1   
    19     8    16 ar  
    20     8    21 ar  
    21     8    28 1   
    22     9    10 ar  
    23     9    21 ar  
    24     9    29 1   
    25    10    11 ar  
    26    10    30 1   
    27    11    12 ar  
    28    11    16 ar  
    29    12    20 ar  
    30    12    31 1   
    31    13    19 1   
    32    13    20 1   
    33    13    32 1   
    34    14    33 1   
    35    14    34 1   
    36    14    35 1   
    37    17    18 ar  
    38    17    36 1   
    39    18    37 1   
    40    19    22 2   
@<TRIPOS>SUBSTRUCTURE
     1 JV8         1 TEMP              0 ****  ****    0 ROOT
