@<TRIPOS>MOLECULE
JV8
   38    40     1     0     0
SMALL
abcg2


@<TRIPOS>ATOM
      1 C1          -5.0130     1.0770    -0.0330 ca         1 JV8      -0.091300
      2 C4          -5.9460    -1.5620     0.0630 ca         1 JV8      -0.078000
      3 C5          -4.5780    -1.3100     0.0770 ca         1 JV8      -0.197000
      4 C6          -4.1150    -0.0000     0.0280 ca         1 JV8       0.131100
      5 C7          -1.8490    -0.6750     0.0890 c3         1 JV8       0.076600
      6 C10          2.6910    -1.9190     0.0540 ca         1 JV8      -0.160000
      7 C11          4.0510    -1.8550     0.0280 ca         1 JV8      -0.050000
      8 C13          6.1080    -0.4720    -0.0080 ca         1 JV8       0.368900
      9 C14          5.9870     1.8000     0.0030 ca         1 JV8       0.328900
     10 C15          4.6200     1.8050     0.0220 ca         1 JV8      -0.150000
     11 C16          3.9230     0.5750     0.0290 ca         1 JV8       0.017000
     12 C17          2.5140     0.4960     0.0510 ca         1 JV8      -0.139000
     13 N            0.5240    -0.9390     0.0930 ns         1 JV8      -0.153000
     14 C           -4.5090     2.4880    -0.0820 c3         1 JV8      -0.038800
     15 O           -2.8060     0.3400     0.0330 os         1 JV8      -0.313100
     16 C12          4.7030    -0.6030     0.0150 ca         1 JV8      -0.125000
     17 C2          -6.3710     0.7910    -0.0460 ca         1 JV8      -0.080000
     18 C3          -6.8480    -0.5150     0.0020 ca         1 JV8      -0.138000
     19 C8          -0.4780    -0.0210     0.0480 c          1 JV8       0.608100
     20 C9           1.9010    -0.7360     0.0650 ca         1 JV8      -0.005000
     21 N1           6.7360     0.6740    -0.0140 nb         1 JV8      -0.668000
     22 O1          -0.3190     1.1770    -0.0170 o          1 JV8      -0.535100
     23 H1          -6.2940    -2.5860     0.1030 ha         1 JV8       0.112000
     24 H2          -3.8950    -2.1480     0.1250 ha         1 JV8       0.110000
     25 H3          -1.9340    -1.2650     1.0110 h1         1 JV8       0.050700
     26 H4          -1.9390    -1.3730    -0.7530 h1         1 JV8       0.050700
     27 H6           4.6370    -2.7650     0.0170 ha         1 JV8       0.119000
     28 H7           6.7180    -1.3720    -0.0210 h4         1 JV8       0.016100
     29 H8           6.5350     2.7340     0.0020 h4         1 JV8       0.019100
     30 H9           4.0760     2.7410     0.0350 ha         1 JV8       0.128000
     31 H10          1.9420     1.4100     0.0610 ha         1 JV8       0.153000
     32 H11          0.2400    -1.9080     0.1300 hn         1 JV8       0.150000
     33 H12         -3.8280     2.6470    -0.9200 hc         1 JV8       0.047033
     34 H13         -5.3360     3.1880    -0.1860 hc         1 JV8       0.047033
     35 H14         -3.9610     2.7530     0.8240 hc         1 JV8       0.047033
     36 H15         -7.0750     1.6140    -0.0940 ha         1 JV8       0.115000
     37 H16         -7.9130    -0.7050    -0.0090 ha         1 JV8       0.116000
     38 H5           2.1970    -2.8840     0.0660 ha         1 JV8       0.111000
@<TRIPOS>BOND
     1     1     4 ar  
     2     1    14 1   
     3     1    17 ar  
     4     2     3 ar  
     5     2    18 ar  
     6     2    23 1   
     7     3     4 ar  
     8     3    24 1   
     9     4    15 1   
    10     5    15 1   
    11     5    19 1   
    12     5    25 1   
    13     5    26 1   
    14     6     7 ar  
    15     6    20 ar  
    16     6    38 1   
    17     7    16 ar  
    18     7    27 1   
    19     8    16 ar  
    20     8    21 ar  
    21     8    28 1   
    22     9    10 ar  
    23     9    21 ar  
    24     9    29 1   
    25    10    11 ar  
    26    10    30 1   
    27    11    12 ar  
    28    11    16 ar  
    29    12    20 ar  
    30    12    31 1   
    31    13    19 1   
    32    13    20 1   
    33    13    32 1   
    34    14    33 1   
    35    14    34 1   
    36    14    35 1   
    37    17    18 ar  
    38    17    36 1   
    39    18    37 1   
    40    19    22 2   
@<TRIPOS>SUBSTRUCTURE
     1 JV8         1 TEMP              0 ****  ****    0 ROOT
