@<TRIPOS>MOLECULE
JV9
   43    46     1     0     0
SMALL
No Charge or Current Charge


@<TRIPOS>ATOM
      1 C11         -9.2510    -5.4320    37.0330 ca         1 JV9       0.169300
      2 C12         -8.5670    -6.5910    37.3280 ca         1 JV9      -0.296300
      3 C13         -9.2000    -7.8090    36.7000 c5         1 JV9       0.000900
      4 C14        -10.6310    -7.2410    36.3680 c5         1 JV9      -0.081400
      5 C15        -10.4340    -5.6920    36.1440 c5         1 JV9      -0.137700
      6 C16         -6.1070    -8.5390    37.6230 ca         1 JV9       0.222000
      7 C17         -5.9230    -8.1860    36.2680 ca         1 JV9      -0.067000
      8 C18         -5.3480    -9.0910    35.3560 ca         1 JV9      -0.205000
      9 C19         -4.9370   -10.3680    35.7910 ca         1 JV9       0.156100
     10 C21         -4.1650   -11.0330    33.5430 c3         1 JV9       0.148900
     11 C22         -5.0950   -10.7210    37.1390 ca         1 JV9      -0.178000
     12 C02         -6.2430    -9.3880    40.4380 c          1 JV9       0.554000
     13 C03         -6.5760    -7.9250    40.0330 c6         1 JV9       0.152800
     14 C05         -7.4460    -6.5050    38.1690 ca         1 JV9       0.438900
     15 C07         -7.8030    -4.2520    38.3310 ca         1 JV9       0.416900
     16 C23         -5.6650    -9.8160    38.0520 ca         1 JV9      -0.011000
     17 N04         -6.6960    -7.6330    38.5540 nh         1 JV9      -0.807100
     18 N06         -7.0680    -5.3230    38.6870 nb         1 JV9      -0.319000
     19 N08         -7.4300    -3.0210    38.8450 nu         1 JV9      -0.932100
     20 N10         -8.8810    -4.2380    37.5260 nb         1 JV9      -0.258000
     21 N24         -5.7930   -10.1860    39.4090 ns         1 JV9      -0.143000
     22 O20         -4.3700   -11.2960    34.9430 os         1 JV9      -0.339100
     23 H1          -9.2420    -8.6730    37.3730 hc         1 JV9       0.050700
     24 H2         -11.3050    -7.4130    37.2160 hc         1 JV9       0.048200
     25 H3         -10.2040    -5.4590    35.0980 hc         1 JV9       0.066200
     26 H4          -6.2230    -7.2040    35.9150 ha         1 JV9       0.129000
     27 H5          -5.2310    -8.7820    34.3210 ha         1 JV9       0.123000
     28 H6          -3.7050   -11.9020    33.0560 h1         1 JV9       0.042367
     29 H7          -5.1180   -10.8260    33.0410 h1         1 JV9       0.042367
     30 H8          -3.4980   -10.1720    33.4020 h1         1 JV9       0.042367
     31 H9          -4.7660   -11.7010    37.4740 ha         1 JV9       0.134000
     32 H10         -5.7850    -7.3040    40.4770 h1         1 JV9       0.090200
     33 H11         -7.5190    -7.6880    40.5460 h1         1 JV9       0.090200
     34 H12         -6.2580    -1.6590    39.9810 h1         1 JV9       0.039033
     35 H13         -6.4060    -3.2870    40.6890 h1         1 JV9       0.039033
     36 H14         -5.3490    -3.0200    39.2780 h1         1 JV9       0.039033
     37 H16         -8.0140    -2.2340    38.5530 hn         1 JV9       0.510000
     38 H17         -5.5470   -11.1380    39.6460 hn         1 JV9       0.161000
     39 H18         -8.6760    -8.1190    35.7890 hc         1 JV9       0.050700
     40 H19        -11.0860    -7.7350    35.5020 hc         1 JV9       0.048200
     41 H20        -11.3210    -5.1140    36.4290 hc         1 JV9       0.066200
     42 O01         -6.3660    -9.8070    41.5850 o          1 JV9      -0.532000
     43 C09         -6.2990    -2.7320    39.7470 c3         1 JV9       0.235100
@<TRIPOS>BOND
     1     1     2 ar  
     2     1     5 1   
     3     1    20 ar  
     4     2     3 1   
     5     2    14 ar  
     6     3     4 1   
     7     3    23 1   
     8     3    39 1   
     9     4     5 1   
    10     4    24 1   
    11     4    40 1   
    12     5    25 1   
    13     5    41 1   
    14     6     7 ar  
    15     6    16 ar  
    16     6    17 1   
    17     7     8 ar  
    18     7    26 1   
    19     8     9 ar  
    20     8    27 1   
    21     9    11 ar  
    22     9    22 1   
    23    10    22 1   
    24    10    28 1   
    25    10    29 1   
    26    10    30 1   
    27    11    16 ar  
    28    11    31 1   
    29    12    13 1   
    30    12    21 1   
    31    12    42 2   
    32    13    17 1   
    33    13    32 1   
    34    13    33 1   
    35    14    17 1   
    36    14    18 ar  
    37    15    18 ar  
    38    15    19 1   
    39    15    20 ar  
    40    16    21 1   
    41    19    37 1   
    42    19    43 1   
    43    21    38 1   
    44    34    43 1   
    45    35    43 1   
    46    36    43 1   
@<TRIPOS>SUBSTRUCTURE
     1 JV9         1 TEMP              0 ****  ****    0 ROOT
