@<TRIPOS>MOLECULE
JV9
   43    46     1     0     0
SMALL
abcg2


@<TRIPOS>ATOM
      1 C11         -9.1710    -5.4610    37.0250 ca         1 JV9       0.169300
      2 C12         -8.3600    -6.5770    37.1850 ca         1 JV9      -0.296300
      3 C13         -8.8570    -7.7220    36.3490 c5         1 JV9       0.000900
      4 C14        -10.2860    -7.2750    35.9860 c5         1 JV9      -0.081400
      5 C15        -10.2550    -5.7420    36.0260 c5         1 JV9      -0.137700
      6 C16         -6.0370    -8.4200    37.5170 ca         1 JV9       0.222000
      7 C17         -5.7930    -8.1840    36.1750 ca         1 JV9      -0.067000
      8 C18         -5.3930    -9.2090    35.3270 ca         1 JV9      -0.205000
      9 C19         -5.1930   -10.4880    35.8390 ca         1 JV9       0.156100
     10 C21         -4.5590   -11.3630    33.7290 c3         1 JV9       0.148900
     11 C22         -5.3770   -10.7230    37.2020 ca         1 JV9      -0.178000
     12 C02         -5.9710    -8.8990    40.3120 c          1 JV9       0.554000
     13 C03         -5.8050    -7.5110    39.7230 c6         1 JV9       0.152800
     14 C05         -7.3360    -6.4390    38.1260 ca         1 JV9       0.438900
     15 C07         -8.0420    -4.3080    38.5730 ca         1 JV9       0.416900
     16 C23         -5.7940    -9.6970    38.0310 ca         1 JV9      -0.011000
     17 N04         -6.4470    -7.4420    38.4290 nh         1 JV9      -0.807100
     18 N06         -7.2010    -5.3100    38.8210 nb         1 JV9      -0.319000
     19 N08         -7.8820    -3.1740    39.2810 nu         1 JV9      -0.932100
     20 N10         -9.0380    -4.3190    37.6740 nb         1 JV9      -0.258000
     21 N24         -5.9880    -9.9000    39.3950 ns         1 JV9      -0.143000
     22 O20         -4.8060   -11.5500    35.1070 os         1 JV9      -0.339100
     23 H1          -8.8420    -8.6790    36.8730 hc         1 JV9       0.050700
     24 H2         -10.9830    -7.6410    36.7420 hc         1 JV9       0.048200
     25 H3          -9.9720    -5.3200    35.0560 hc         1 JV9       0.066200
     26 H4          -5.9300    -7.1880    35.7730 ha         1 JV9       0.129000
     27 H5          -5.2340    -8.9840    34.2820 ha         1 JV9       0.123000
     28 H6          -4.2510   -12.3290    33.3360 h1         1 JV9       0.042367
     29 H7          -5.4530   -11.0340    33.1940 h1         1 JV9       0.042367
     30 H8          -3.7580   -10.6400    33.5520 h1         1 JV9       0.042367
     31 H9          -5.1950   -11.7110    37.6080 ha         1 JV9       0.134000
     32 H10         -4.7340    -7.2820    39.6570 h1         1 JV9       0.090200
     33 H11         -6.2540    -6.7870    40.3960 h1         1 JV9       0.090200
     34 H12         -6.9590    -1.9750    40.6730 h1         1 JV9       0.039033
     35 H13         -6.9950    -3.6790    41.1280 h1         1 JV9       0.039033
     36 H14         -5.8660    -3.1180    39.8920 h1         1 JV9       0.039033
     37 H16         -8.5240    -2.4260    39.0870 hn         1 JV9       0.510000
     38 H17         -6.0090   -10.8500    39.7440 hn         1 JV9       0.161000
     39 H18         -8.2520    -7.8530    35.4470 hc         1 JV9       0.050700
     40 H19        -10.6110    -7.6680    35.0230 hc         1 JV9       0.048200
     41 H20        -11.2070    -5.2920    36.3060 hc         1 JV9       0.066200
     42 O01         -6.0540    -9.1000    41.5070 o          1 JV9      -0.532000
     43 C09         -6.8740    -2.9890    40.2910 c3         1 JV9       0.235100
@<TRIPOS>BOND
     1     1     2 ar  
     2     1     5 1   
     3     1    20 ar  
     4     2     3 1   
     5     2    14 ar  
     6     3     4 1   
     7     3    23 1   
     8     3    39 1   
     9     4     5 1   
    10     4    24 1   
    11     4    40 1   
    12     5    25 1   
    13     5    41 1   
    14     6     7 ar  
    15     6    16 ar  
    16     6    17 1   
    17     7     8 ar  
    18     7    26 1   
    19     8     9 ar  
    20     8    27 1   
    21     9    11 ar  
    22     9    22 1   
    23    10    22 1   
    24    10    28 1   
    25    10    29 1   
    26    10    30 1   
    27    11    16 ar  
    28    11    31 1   
    29    12    13 1   
    30    12    21 1   
    31    12    42 2   
    32    13    17 1   
    33    13    32 1   
    34    13    33 1   
    35    14    17 1   
    36    14    18 ar  
    37    15    18 ar  
    38    15    19 1   
    39    15    20 ar  
    40    16    21 1   
    41    19    37 1   
    42    19    43 1   
    43    21    38 1   
    44    34    43 1   
    45    35    43 1   
    46    36    43 1   
@<TRIPOS>SUBSTRUCTURE
     1 JV9         1 TEMP              0 ****  ****    0 ROOT
