@<TRIPOS>MOLECULE
JVA
   28    28     1     0     0
SMALL
bcc


@<TRIPOS>ATOM
      1 C1          -0.0350     0.9270     0.6130 c6         1 JVA       0.172100
      2 C2           1.2900     1.6370     0.3840 c6         1 JVA       0.101600
      3 C3           2.1140     0.9090    -0.6630 c6         1 JVA       0.079100
      4 C4           2.2540    -0.5690    -0.3190 c6         1 JVA       0.110100
      5 C5           0.8900    -1.1890     0.0180 c6         1 JVA       0.161100
      6 C6           1.1010    -2.5740     0.5980 c3         1 JVA       0.156400
      7 C7          -0.9810     1.1110    -0.5660 c3         1 JVA      -0.249600
      8 O3           3.4140     1.4390    -0.8000 oh         1 JVA      -0.625800
      9 F2           2.0140     1.6640     1.5830 f          1 JVA      -0.276300
     10 O1P         -3.1120     0.6990     1.0480 o          1 JVA      -0.928500
     11 O2P         -3.5040     1.0530    -1.4660 o          1 JVA      -0.928500
     12 O3P         -2.5050    -1.1560    -0.6370 o          1 JVA      -0.928500
     13 O4           2.8060    -1.2870    -1.3990 oh         1 JVA      -0.603800
     14 O5           0.2260    -0.4130     0.9850 os         1 JVA      -0.362600
     15 O6          -0.1330    -3.2160     0.8050 oh         1 JVA      -0.511800
     16 P           -2.6750     0.3440    -0.3820 p5         1 JVA       1.136700
     17 H1          -0.5220     1.3690     1.4860 h1         1 JVA       0.106700
     18 H2           1.1200     2.6780     0.0890 h1         1 JVA       0.039700
     19 H3           1.5680     0.9800    -1.6130 h1         1 JVA       0.067700
     20 H4           2.8960    -0.6530     0.5720 h1         1 JVA       0.031700
     21 H5           0.2840    -1.2620    -0.8940 h1         1 JVA       0.115700
     22 H6           1.7350    -3.1420    -0.0930 h1         1 JVA      -0.008800
     23 H7           1.6670    -2.4730     1.5370 h1         1 JVA      -0.008800
     24 H8          -1.1140     2.1920    -0.6870 hc         1 JVA       0.011700
     25 H9          -0.5390     0.7650    -1.5060 hc         1 JVA       0.011700
     26 H10          3.3660     2.2480    -1.3180 ho         1 JVA       0.389000
     27 H13          3.6600    -0.8950    -1.6090 ho         1 JVA       0.388000
     28 H14          0.0560    -4.0910     1.1530 ho         1 JVA       0.354000
@<TRIPOS>BOND
     1     1     2 1   
     2     1     7 1   
     3     1    14 1   
     4     1    17 1   
     5     2     3 1   
     6     2     9 1   
     7     2    18 1   
     8     3     4 1   
     9     3     8 1   
    10     3    19 1   
    11     4     5 1   
    12     4    13 1   
    13     4    20 1   
    14     5     6 1   
    15     5    14 1   
    16     5    21 1   
    17     6    15 1   
    18     6    22 1   
    19     6    23 1   
    20     7    16 1   
    21     7    24 1   
    22     7    25 1   
    23     8    26 1   
    24    10    16 1   
    25    11    16 1   
    26    12    16 1   
    27    13    27 1   
    28    15    28 1   
@<TRIPOS>SUBSTRUCTURE
     1 JVA         1 TEMP              0 ****  ****    0 ROOT
