@<TRIPOS>MOLECULE
JVA
   28    28     1     0     0
SMALL
No Charge or Current Charge


@<TRIPOS>ATOM
      1 C1          -0.3270     0.3420     0.7170 c6         1 JVA       0.195300
      2 C2           0.7920     1.4200     0.5430 c6         1 JVA       0.120300
      3 C3           1.8190     1.0120    -0.5570 c6         1 JVA       0.102300
      4 C4           2.3460    -0.4340    -0.3080 c6         1 JVA       0.133300
      5 C5           1.1510    -1.4290    -0.1550 c6         1 JVA       0.184300
      6 C6           1.6310    -2.8760     0.1990 c3         1 JVA       0.179600
      7 C7          -1.3460     0.2490    -0.4540 c3         1 JVA      -0.407400
      8 O3           2.9260     1.9390    -0.6070 oh         1 JVA      -0.688000
      9 F2           1.4830     1.5590     1.7710 f          1 JVA      -0.295000
     10 O1P         -1.8090     2.8070    -1.2060 o          1 JVA      -0.928500
     11 O2P         -3.6870     1.2500    -1.3480 o          1 JVA      -0.928500
     12 O3P         -2.9190     2.0360     0.8370 o          1 JVA      -0.928500
     13 O4           3.2340    -0.8030    -1.3800 oh         1 JVA      -0.726000
     14 O5           0.2640    -0.9720     0.9070 os         1 JVA      -0.409000
     15 O6           0.5520    -3.8000     0.4140 oh         1 JVA      -0.634000
     16 P           -2.5030     1.6680    -0.5450 p5         1 JVA       1.294500
     17 H1          -0.8880     0.5830     1.6330 h1         1 JVA       0.106700
     18 H2           0.3520     2.3980     0.3110 h1         1 JVA       0.039700
     19 H3           1.2940     1.0200    -1.5240 h1         1 JVA       0.067700
     20 H4           2.9050    -0.4360     0.6400 h1         1 JVA       0.031700
     21 H5           0.5980    -1.4880    -1.1020 h1         1 JVA       0.115700
     22 H6           2.2660    -3.2440    -0.6160 h1         1 JVA      -0.008800
     23 H7           2.2550    -2.8230     1.1010 h1         1 JVA      -0.008800
     24 H8          -0.8510     0.1780    -1.4280 hc         1 JVA       0.011700
     25 H9          -1.9640    -0.6490    -0.3410 hc         1 JVA       0.011700
     26 H10          3.0930     2.2090     0.3240 ho         1 JVA       0.428000
     27 H13          3.7160     0.0300    -1.5990 ho         1 JVA       0.487000
     28 H14          0.9580    -4.6500     0.6930 ho         1 JVA       0.453000
@<TRIPOS>BOND
     1     1     2 1   
     2     1     7 1   
     3     1    14 1   
     4     1    17 1   
     5     2     3 1   
     6     2     9 1   
     7     2    18 1   
     8     3     4 1   
     9     3     8 1   
    10     3    19 1   
    11     4     5 1   
    12     4    13 1   
    13     4    20 1   
    14     5     6 1   
    15     5    14 1   
    16     5    21 1   
    17     6    15 1   
    18     6    22 1   
    19     6    23 1   
    20     7    16 1   
    21     7    24 1   
    22     7    25 1   
    23     8    26 1   
    24    10    16 1   
    25    11    16 1   
    26    12    16 1   
    27    13    27 1   
    28    15    28 1   
@<TRIPOS>SUBSTRUCTURE
     1 JVA         1 TEMP              0 ****  ****    0 ROOT
