@<TRIPOS>MOLECULE
JVB
   32    33     1     0     0
SMALL
abcg2


@<TRIPOS>ATOM
      1 C10         -0.7350    -0.2070    -0.0080 c          1 JVB       0.608100
      2 N12         -1.8220     0.5870     0.1640 ns         1 JVB      -0.148000
      3 C13         -3.1700     0.2370     0.1230 ca         1 JVB      -0.071000
      4 C15         -5.0400    -1.2300    -0.0650 ca         1 JVB      -0.135000
      5 C02          3.8690    -0.8990     0.0270 ca         1 JVB      -0.092300
      6 C03          5.1970    -0.5090    -0.0580 ca         1 JVB      -0.080000
      7 C04          5.5650     0.8290    -0.1670 ca         1 JVB      -0.138000
      8 C05          4.5800     1.8000    -0.1880 ca         1 JVB      -0.078000
      9 C06          3.2370     1.4430    -0.1040 ca         1 JVB      -0.197000
     10 C07          2.8850     0.1020     0.0000 ca         1 JVB       0.131100
     11 C09          0.5660     0.5810     0.0150 c3         1 JVB       0.078600
     12 C14         -3.6650    -1.0540    -0.0490 ca         1 JVB      -0.098000
     13 C16         -5.8750    -0.1370     0.0880 ca         1 JVB       0.306900
     14 C18         -4.0990     1.2720     0.2690 ca         1 JVB       0.284900
     15 N17         -5.4070     1.0960     0.2540 nb         1 JVB      -0.642000
     16 O08          1.6110    -0.3420     0.0830 os         1 JVB      -0.314100
     17 O11         -0.7730    -1.4040    -0.1850 o          1 JVB      -0.539100
     18 H1          -1.6430     1.5700     0.3170 hn         1 JVB       0.152000
     19 H2          -5.4570    -2.2190    -0.1970 ha         1 JVB       0.126000
     20 H3           3.0010    -2.5500     1.1090 hc         1 JVB       0.047033
     21 H4           2.7800    -2.6450    -0.6270 hc         1 JVB       0.047033
     22 H5           4.3600    -2.9820     0.0780 hc         1 JVB       0.047033
     23 H6           5.9650    -1.2730    -0.0410 ha         1 JVB       0.115000
     24 H7           6.6100     1.1010    -0.2330 ha         1 JVB       0.117000
     25 H8           4.8420     2.8470    -0.2710 ha         1 JVB       0.112000
     26 H9           2.4890     2.2230    -0.1200 ha         1 JVB       0.110000
     27 H10          0.6120     1.1900    -0.8970 h1         1 JVB       0.050700
     28 H11          0.5710     1.2720     0.8680 h1         1 JVB       0.050700
     29 H12         -3.0100    -1.9010    -0.1640 ha         1 JVB       0.153000
     30 H13         -6.9520    -0.2550     0.0790 h4         1 JVB       0.023100
     31 H14         -3.7460     2.2910     0.4050 h4         1 JVB       0.012100
     32 C01          3.4820    -2.3430     0.1510 c3         1 JVB      -0.038800
@<TRIPOS>BOND
     1     1     2 1   
     2     1    11 1   
     3     1    17 2   
     4     2     3 1   
     5     2    18 1   
     6     3    12 ar  
     7     3    14 ar  
     8     4    12 ar  
     9     4    13 ar  
    10     4    19 1   
    11     5     6 ar  
    12     5    10 ar  
    13     5    32 1   
    14     6     7 ar  
    15     6    23 1   
    16     7     8 ar  
    17     7    24 1   
    18     8     9 ar  
    19     8    25 1   
    20     9    10 ar  
    21     9    26 1   
    22    10    16 1   
    23    11    16 1   
    24    11    27 1   
    25    11    28 1   
    26    12    29 1   
    27    13    15 ar  
    28    13    30 1   
    29    14    15 ar  
    30    14    31 1   
    31    20    32 1   
    32    21    32 1   
    33    22    32 1   
@<TRIPOS>SUBSTRUCTURE
     1 JVB         1 TEMP              0 ****  ****    0 ROOT
