@<TRIPOS>MOLECULE
JVB
   32    33     1     0     0
SMALL
No Charge or Current Charge


@<TRIPOS>ATOM
      1 C10         -0.7970    -0.3080     0.0380 c          1 JVB       0.608100
      2 N12         -1.9100     0.5260     0.0480 ns         1 JVB      -0.148000
      3 C13         -3.3110     0.2580     0.0700 ca         1 JVB      -0.071000
      4 C15         -5.2630    -1.1750     0.1060 ca         1 JVB      -0.135000
      5 C02          4.0410    -0.9040    -0.0260 ca         1 JVB      -0.092300
      6 C03          5.3770    -0.4580    -0.0480 ca         1 JVB      -0.080000
      7 C04          5.6660     0.9160    -0.0610 ca         1 JVB      -0.138000
      8 C05          4.6230     1.8550    -0.0520 ca         1 JVB      -0.078000
      9 C06          3.2870     1.4210    -0.0310 ca         1 JVB      -0.197000
     10 C07          2.9890     0.0390    -0.0170 ca         1 JVB       0.131100
     11 C09          0.5430     0.4610     0.0140 c3         1 JVB       0.078600
     12 C14         -3.8640    -1.0430     0.0860 ca         1 JVB      -0.098000
     13 C16         -6.0660    -0.0210     0.1100 ca         1 JVB       0.306900
     14 C18         -4.2030     1.3540     0.0750 ca         1 JVB       0.284900
     15 N17         -5.5510     1.2290     0.0950 nb         1 JVB      -0.642000
     16 O08          1.6870    -0.4260     0.0040 os         1 JVB      -0.314100
     17 O11         -0.8630    -1.5340     0.0470 o          1 JVB      -0.539100
     18 H1          -1.6850     1.5140     0.0390 hn         1 JVB       0.152000
     19 H2          -5.7280    -2.1570     0.1190 ha         1 JVB       0.126000
     20 H3           3.1730    -2.6780     0.8840 hc         1 JVB       0.047033
     21 H4           3.1480    -2.6900    -0.8870 hc         1 JVB       0.047033
     22 H5           4.6580    -3.0010    -0.0200 hc         1 JVB       0.047033
     23 H6           6.1950    -1.1760    -0.0540 ha         1 JVB       0.115000
     24 H7           6.7000     1.2540    -0.0780 ha         1 JVB       0.117000
     25 H8           4.8500     2.9190    -0.0630 ha         1 JVB       0.112000
     26 H9           2.5010     2.1700    -0.0250 ha         1 JVB       0.110000
     27 H10          0.5420     1.0980    -0.8790 h1         1 JVB       0.050700
     28 H11          0.5670     1.1100     0.8980 h1         1 JVB       0.050700
     29 H12         -3.2490    -1.9380     0.0830 ha         1 JVB       0.153000
     30 H13         -7.1520    -0.1000     0.1260 h4         1 JVB       0.023100
     31 H14         -3.8210     2.3750     0.0630 h4         1 JVB       0.012100
     32 C01          3.7410    -2.4000    -0.0120 c3         1 JVB      -0.038800
@<TRIPOS>BOND
     1     1     2 1   
     2     1    11 1   
     3     1    17 2   
     4     2     3 1   
     5     2    18 1   
     6     3    12 ar  
     7     3    14 ar  
     8     4    12 ar  
     9     4    13 ar  
    10     4    19 1   
    11     5     6 ar  
    12     5    10 ar  
    13     5    32 1   
    14     6     7 ar  
    15     6    23 1   
    16     7     8 ar  
    17     7    24 1   
    18     8     9 ar  
    19     8    25 1   
    20     9    10 ar  
    21     9    26 1   
    22    10    16 1   
    23    11    16 1   
    24    11    27 1   
    25    11    28 1   
    26    12    29 1   
    27    13    15 ar  
    28    13    30 1   
    29    14    15 ar  
    30    14    31 1   
    31    20    32 1   
    32    21    32 1   
    33    22    32 1   
@<TRIPOS>SUBSTRUCTURE
     1 JVB         1 TEMP              0 ****  ****    0 ROOT
