@<TRIPOS>MOLECULE
JVC
   99   101     1     0     0
SMALL
No Charge or Current Charge


@<TRIPOS>ATOM
      1 N1           8.2870   -10.9670     6.4480 nv         1 JVC      -1.079200
      2 C7          -0.2760   -14.6820     4.4860 c          1 JVC       0.581100
      3 C8          -0.7340   -13.6890     3.3740 c3         1 JVC       0.033700
      4 N2           8.9080   -11.9170     4.5400 n2         1 JVC      -0.907100
      5 C9          -1.1490   -14.4350     2.0840 c3         1 JVC      -0.034100
      6 C1           6.3420   -13.4340     5.2030 c3         1 JVC       0.164500
      7 C5           2.8680   -14.7160     6.6450 c3         1 JVC      -0.098400
      8 C6           1.5860   -15.3330     6.0490 c3         1 JVC       0.102000
      9 N3           0.9820   -14.4860     5.0160 ns         1 JVC      -0.500900
     10 C4           4.0270   -14.5720     5.6310 c3         1 JVC      -0.071400
     11 C3           5.2860   -13.9070     6.2390 c3         1 JVC      -0.078400
     12 C2           8.0360   -11.6570     5.3790 c2         1 JVC       0.809100
     13 N4          -4.7860   -10.2010     0.7760 n8         1 JVC      -1.004200
     14 N            7.3890   -12.6460     5.9300 nu         1 JVC      -0.939400
     15 C            6.9300   -14.6020     4.3300 c          1 JVC       0.599100
     16 O            6.2790   -15.2370     3.5080 o          1 JVC      -0.600100
     17 C10         -1.6090   -13.4910     0.9780 ca         1 JVC      -0.085300
     18 C11         -2.9010   -12.9320     1.0210 ca         1 JVC      -0.104000
     19 C12         -3.3430   -12.0650     0.0020 ca         1 JVC      -0.086300
     20 C13         -4.7490   -11.4800     0.0450 c3         1 JVC       0.195100
     21 C14         -2.4770   -11.7590    -1.0660 ca         1 JVC      -0.082000
     22 C15         -1.1840   -12.3060    -1.1090 ca         1 JVC      -0.104000
     23 C16         -0.7510   -13.1710    -0.0920 ca         1 JVC      -0.111000
     24 C17          0.2390   -11.3400     3.4740 c          1 JVC       0.587100
     25 C18          1.3210   -10.3910     2.8650 c3         1 JVC       0.039700
     26 C19          0.7210    -9.1130     2.2260 c3         1 JVC      -0.082400
     27 C20         -0.1290    -9.3440     0.9510 c3         1 JVC      -0.076400
     28 C21         -0.7420    -8.0270     0.4110 c3         1 JVC      -0.067400
     29 C22         -1.5420    -8.1770    -0.9020 c3         1 JVC       0.144800
     30 C23          3.3940   -11.7120     2.2560 c          1 JVC       0.599100
     31 C24          4.1720   -12.3540     1.1030 c3         1 JVC      -0.103100
     32 C25          5.5620   -11.7440     0.9390 ca         1 JVC      -0.075300
     33 C26          6.7070   -12.5620     1.0030 ca         1 JVC      -0.058000
     34 C27          7.9970   -12.0090     0.8630 ca         1 JVC      -0.098300
     35 C28          9.2250   -12.9070     0.9470 c3         1 JVC       0.144300
     36 C29          9.3890   -15.0590     2.2600 c          1 JVC       0.578100
     37 C30          9.1070   -15.7000     3.6440 c3         1 JVC       0.023000
     38 C31          8.1340   -10.6250     0.6490 ca         1 JVC      -0.103000
     39 C32          6.9950    -9.8050     0.5740 ca         1 JVC      -0.116000
     40 C33          5.7130   -10.3610     0.7170 ca         1 JVC      -0.100000
     41 N5           0.2890   -12.6580     3.0640 ns         1 JVC      -0.486900
     42 N6          -0.6750    -8.4970    -2.0570 n8         1 JVC      -1.010200
     43 N7           2.2170   -11.0880     1.9060 ns         1 JVC      -0.530900
     44 N8           9.2130   -13.6930     2.1780 ns         1 JVC      -0.502900
     45 N9           8.2770   -14.8300     4.5070 ns         1 JVC      -0.498900
     46 O2           3.7520   -11.7890     3.4200 o          1 JVC      -0.586100
     47 H1           8.2190    -9.9760     6.2610 hn         1 JVC       0.462000
     48 H2           9.1960   -11.2160     6.8110 hn         1 JVC       0.462000
     49 H3          -1.6240   -13.1840     3.7710 h1         1 JVC       0.080700
     50 H4           9.5730   -11.1380     4.5450 hn         1 JVC       0.385400
     51 H5          -1.9540   -15.1420     2.3210 hc         1 JVC       0.072700
     52 H6          -0.3070   -15.0460     1.7370 hc         1 JVC       0.072700
     53 H7           5.8330   -12.7740     4.4870 h1         1 JVC       0.116700
     54 H8           3.2020   -15.3450     7.4800 hc         1 JVC       0.041200
     55 H9           2.6240   -13.7340     7.0690 hc         1 JVC       0.041200
     56 H10          0.8540   -15.4810     6.8550 h1         1 JVC       0.059200
     57 H11          1.8150   -16.3160     5.6150 h1         1 JVC       0.059200
     58 H12          1.5000   -13.6890     4.6670 hn         1 JVC       0.336500
     59 H13          3.6850   -13.9820     4.7750 hc         1 JVC       0.064700
     60 H14          4.2860   -15.5660     5.2450 hc         1 JVC       0.064700
     61 H15          5.7540   -14.6020     6.9490 hc         1 JVC       0.038700
     62 H16          4.9640   -13.0330     6.8200 hc         1 JVC       0.038700
     63 H17         -5.7630    -9.8990     0.8680 hn         1 JVC       0.396500
     64 H18         -4.4890   -10.3700     1.7440 hn         1 JVC       0.396500
     65 H20          7.1510   -12.3460     6.8650 hn         1 JVC       0.483000
     66 H21         -3.5660   -13.1750     1.8460 ha         1 JVC       0.109000
     67 H22         -5.1160   -11.3150    -0.9780 h1         1 JVC       0.037200
     68 H23         -5.4280   -12.1900     0.5380 h1         1 JVC       0.037200
     69 H24         -2.8060   -11.0930    -1.8600 ha         1 JVC       0.119000
     70 H25         -0.5190   -12.0580    -1.9340 ha         1 JVC       0.119000
     71 H26          0.2500   -13.5940    -0.1380 ha         1 JVC       0.106000
     72 H27          1.9280   -10.0700     3.7230 h1         1 JVC       0.104700
     73 H28          1.5430    -8.4300     1.9820 hc         1 JVC       0.059700
     74 H29          0.1080    -8.5990     2.9770 hc         1 JVC       0.059700
     75 H30         -0.9380   -10.0530     1.1680 hc         1 JVC       0.048700
     76 H31          0.4940    -9.7980     0.1710 hc         1 JVC       0.048700
     77 H32          0.0530    -7.2850     0.2640 hc         1 JVC       0.036700
     78 H33         -1.4120    -7.6160     1.1750 hc         1 JVC       0.036700
     79 H34         -2.0620    -7.2320    -1.1130 h1         1 JVC       0.039700
     80 H35         -2.3010    -8.9630    -0.7860 h1         1 JVC       0.039700
     81 H36          3.6100   -12.2470     0.1680 hc         1 JVC       0.065200
     82 H37          4.2590   -13.4240     1.3230 hc         1 JVC       0.065200
     83 H38          6.5980   -13.6320     1.1650 ha         1 JVC       0.137000
     84 H39          9.2440   -13.5710     0.0730 h1         1 JVC       0.059200
     85 H40         10.1400   -12.3000     0.9300 h1         1 JVC       0.059200
     86 H41          8.6020   -16.6610     3.4870 h1         1 JVC       0.079700
     87 H42         10.0710   -15.8770     4.1370 h1         1 JVC       0.079700
     88 H43          9.1220   -10.1820     0.5390 ha         1 JVC       0.107000
     89 H44          7.1060    -8.7360     0.4060 ha         1 JVC       0.109000
     90 H45          4.8390    -9.7170     0.6570 ha         1 JVC       0.106000
     91 H46          0.9970   -12.8730     2.3720 hn         1 JVC       0.330500
     92 H47         -1.2430    -8.4930    -2.9120 hn         1 JVC       0.391500
     93 H48         -0.0150    -7.7250    -2.2010 hn         1 JVC       0.391500
     94 H50          1.9940   -11.0510     0.9170 hn         1 JVC       0.318500
     95 H51          8.9870   -13.2090     3.0490 hn         1 JVC       0.358500
     96 H52          8.7230   -14.1640     5.1360 hn         1 JVC       0.326500
     97 O4          -0.9840   -15.6060     4.8660 o          1 JVC      -0.602100
     98 O1           9.7090   -15.7270     1.2860 o          1 JVC      -0.631100
     99 O3          -0.6030   -10.9520     4.2730 o          1 JVC      -0.639100
@<TRIPOS>BOND
     1     1    12 1   
     2     1    47 1   
     3     1    48 1   
     4     2     3 1   
     5     2     9 1   
     6     2    97 2   
     7     3     5 1   
     8     3    41 1   
     9     3    49 1   
    10     4    12 2   
    11     4    50 1   
    12     5    17 1   
    13     5    51 1   
    14     5    52 1   
    15     6    11 1   
    16     6    14 1   
    17     6    15 1   
    18     6    53 1   
    19     7     8 1   
    20     7    10 1   
    21     7    54 1   
    22     7    55 1   
    23     8     9 1   
    24     8    56 1   
    25     8    57 1   
    26     9    58 1   
    27    10    11 1   
    28    10    59 1   
    29    10    60 1   
    30    11    61 1   
    31    11    62 1   
    32    12    14 1   
    33    13    20 1   
    34    13    63 1   
    35    13    64 1   
    36    14    65 1   
    37    15    16 2   
    38    15    45 1   
    39    17    18 ar  
    40    17    23 ar  
    41    18    19 ar  
    42    18    66 1   
    43    19    20 1   
    44    19    21 ar  
    45    20    67 1   
    46    20    68 1   
    47    21    22 ar  
    48    21    69 1   
    49    22    23 ar  
    50    22    70 1   
    51    23    71 1   
    52    24    25 1   
    53    24    41 1   
    54    24    99 2   
    55    25    26 1   
    56    25    43 1   
    57    25    72 1   
    58    26    27 1   
    59    26    73 1   
    60    26    74 1   
    61    27    28 1   
    62    27    75 1   
    63    27    76 1   
    64    28    29 1   
    65    28    77 1   
    66    28    78 1   
    67    29    42 1   
    68    29    79 1   
    69    29    80 1   
    70    30    31 1   
    71    30    43 1   
    72    30    46 2   
    73    31    32 1   
    74    31    81 1   
    75    31    82 1   
    76    32    33 ar  
    77    32    40 ar  
    78    33    34 ar  
    79    33    83 1   
    80    34    35 1   
    81    34    38 ar  
    82    35    44 1   
    83    35    84 1   
    84    35    85 1   
    85    36    37 1   
    86    36    44 1   
    87    36    98 2   
    88    37    45 1   
    89    37    86 1   
    90    37    87 1   
    91    38    39 ar  
    92    38    88 1   
    93    39    40 ar  
    94    39    89 1   
    95    40    90 1   
    96    41    91 1   
    97    42    92 1   
    98    42    93 1   
    99    43    94 1   
   100    44    95 1   
   101    45    96 1   
@<TRIPOS>SUBSTRUCTURE
     1 JVC         1 TEMP              0 ****  ****    0 ROOT
