@<TRIPOS>MOLECULE
JVC
   99   101     1     0     0
SMALL
abcg2


@<TRIPOS>ATOM
      1 N1           8.7890   -11.1000     6.3340 nv         1 JVC      -1.079200
      2 C7           0.5640   -14.7650     3.9710 c          1 JVC       0.581100
      3 C8          -0.0450   -13.8060     2.9310 c3         1 JVC       0.033700
      4 N2           8.0440   -11.7490     4.1750 n2         1 JVC      -0.907100
      5 C9          -0.4210   -14.5240     1.6350 c3         1 JVC      -0.034100
      6 C1           5.8650   -13.0860     5.3460 c3         1 JVC       0.164500
      7 C5           2.4260   -14.2120     6.8480 c3         1 JVC      -0.098400
      8 C6           1.1720   -14.9350     6.3600 c3         1 JVC       0.102000
      9 N3           0.5450   -14.2790     5.2230 ns         1 JVC      -0.500900
     10 C4           3.5070   -14.0630     5.7780 c3         1 JVC      -0.071400
     11 C3           4.7960   -13.5020     6.3680 c3         1 JVC      -0.078400
     12 C2           7.9460   -11.7560     5.4650 c2         1 JVC       0.809100
     13 N4          -4.7760   -10.7760     0.7410 n8         1 JVC      -1.004200
     14 N            6.9980   -12.5360     6.0720 nu         1 JVC      -0.939400
     15 C            6.2580   -14.2410     4.4230 c          1 JVC       0.599100
     16 O            5.5460   -14.5600     3.4720 o          1 JVC      -0.600100
     17 C10         -1.1210   -13.6080     0.6650 ca         1 JVC      -0.085300
     18 C11         -2.4750   -13.3090     0.8350 ca         1 JVC      -0.104000
     19 C12         -3.1460   -12.4450    -0.0250 ca         1 JVC      -0.086300
     20 C13         -4.6050   -12.1330     0.1930 c3         1 JVC       0.195100
     21 C14         -2.4380   -11.8600    -1.0770 ca         1 JVC      -0.082000
     22 C15         -1.0920   -12.1460    -1.2600 ca         1 JVC      -0.104000
     23 C16         -0.4360   -13.0170    -0.3940 ca         1 JVC      -0.111000
     24 C17          0.8870   -11.5620     3.3250 c          1 JVC       0.587100
     25 C18          1.7950   -10.4490     2.7860 c3         1 JVC       0.039700
     26 C19          0.9650    -9.1940     2.4780 c3         1 JVC      -0.082400
     27 C20         -0.0670    -9.3710     1.3660 c3         1 JVC      -0.076400
     28 C21         -0.8960    -8.1080     1.1440 c3         1 JVC      -0.067400
     29 C22         -1.8810    -8.2100    -0.0160 c3         1 JVC       0.144800
     30 C23          3.9020   -11.1810     1.7240 c          1 JVC       0.599100
     31 C24          4.5060   -11.6840     0.4150 c3         1 JVC      -0.103100
     32 C25          5.9940   -11.4880     0.3260 ca         1 JVC      -0.075300
     33 C26          6.8660   -12.4910     0.7380 ca         1 JVC      -0.058000
     34 C27          8.2470   -12.3050     0.7120 ca         1 JVC      -0.098300
     35 C28          9.1830   -13.3980     1.1770 c3         1 JVC       0.144300
     36 C29          8.5610   -15.3580     2.5180 c          1 JVC       0.578100
     37 C30          7.9730   -15.8720     3.8350 c3         1 JVC       0.023000
     38 C31          8.7560   -11.0940     0.2510 ca         1 JVC      -0.103000
     39 C32          7.8950   -10.0880    -0.1800 ca         1 JVC      -0.116000
     40 C33          6.5200   -10.2820    -0.1400 ca         1 JVC      -0.100000
     41 N5           0.8850   -12.7200     2.6520 ns         1 JVC      -0.486900
     42 N6          -1.1860    -8.2690    -1.3120 n8         1 JVC      -1.010200
     43 N7           2.5890   -10.8610     1.6440 ns         1 JVC      -0.530900
     44 N8           8.7110   -14.0350     2.3960 ns         1 JVC      -0.502900
     45 N9           7.4120   -14.8720     4.7100 ns         1 JVC      -0.498900
     46 O2           4.5380   -11.1210     2.7720 o          1 JVC      -0.586100
     47 H1           8.4220   -10.8480     7.2400 hn         1 JVC       0.462000
     48 H2           9.3680   -10.3840     5.9220 hn         1 JVC       0.462000
     49 H3          -0.9350   -13.3520     3.3690 h1         1 JVC       0.080700
     50 H4           8.7790   -11.1180     3.8690 hn         1 JVC       0.385400
     51 H5          -1.0660   -15.3640     1.8970 hc         1 JVC       0.072700
     52 H6           0.4820   -14.9400     1.1850 hc         1 JVC       0.072700
     53 H7           5.4450   -12.3310     4.6790 h1         1 JVC       0.116700
     54 H8           2.8220   -14.7760     7.6990 hc         1 JVC       0.041200
     55 H9           2.1510   -13.2230     7.2290 hc         1 JVC       0.041200
     56 H10          0.4430   -14.9970     7.1710 h1         1 JVC       0.059200
     57 H11          1.4160   -15.9500     6.0490 h1         1 JVC       0.059200
     58 H12          0.2120   -13.3290     5.3410 hn         1 JVC       0.336500
     59 H13          3.1470   -13.4050     4.9840 hc         1 JVC       0.064700
     60 H14          3.6990   -15.0320     5.3140 hc         1 JVC       0.064700
     61 H15          5.2310   -14.2280     7.0620 hc         1 JVC       0.038700
     62 H16          4.5620   -12.6070     6.9530 hc         1 JVC       0.038700
     63 H17         -5.7620   -10.6010     0.9090 hn         1 JVC       0.396500
     64 H18         -4.3170   -10.7190     1.6450 hn         1 JVC       0.396500
     65 H20          6.9010   -12.4560     7.0710 hn         1 JVC       0.483000
     66 H21         -3.0200   -13.7680     1.6530 ha         1 JVC       0.109000
     67 H22         -5.1330   -12.1710    -0.7630 h1         1 JVC       0.037200
     68 H23         -5.0390   -12.9090     0.8350 h1         1 JVC       0.037200
     69 H24         -2.9460   -11.1810    -1.7510 ha         1 JVC       0.119000
     70 H25         -0.5480   -11.6870    -2.0760 ha         1 JVC       0.119000
     71 H26          0.6140   -13.2390    -0.5440 ha         1 JVC       0.106000
     72 H27          2.4950   -10.2200     3.5880 h1         1 JVC       0.104700
     73 H28          1.6610    -8.3940     2.2160 hc         1 JVC       0.059700
     74 H29          0.4640    -8.8960     3.4010 hc         1 JVC       0.059700
     75 H30         -0.7390   -10.2000     1.6110 hc         1 JVC       0.048700
     76 H31          0.4250    -9.6390     0.4280 hc         1 JVC       0.048700
     77 H32         -0.2280    -7.2550     0.9720 hc         1 JVC       0.036700
     78 H33         -1.4540    -7.8810     2.0580 hc         1 JVC       0.036700
     79 H34         -2.5840    -7.3680     0.0410 h1         1 JVC       0.039700
     80 H35         -2.4700    -9.1220     0.0890 h1         1 JVC       0.039700
     81 H36          4.0000   -11.2030    -0.4240 hc         1 JVC       0.065200
     82 H37          4.2620   -12.7490     0.3650 hc         1 JVC       0.065200
     83 H38          6.4600   -13.4200     1.1180 ha         1 JVC       0.137000
     84 H39          9.2740   -14.1760     0.4190 h1         1 JVC       0.059200
     85 H40         10.1790   -12.9790     1.3350 h1         1 JVC       0.059200
     86 H41          7.2140   -16.6060     3.5670 h1         1 JVC       0.079700
     87 H42          8.7680   -16.3940     4.3670 h1         1 JVC       0.079700
     88 H43          9.8280   -10.9340     0.2360 ha         1 JVC       0.107000
     89 H44          8.2990    -9.1490    -0.5380 ha         1 JVC       0.109000
     90 H45          5.8500    -9.4940    -0.4640 ha         1 JVC       0.106000
     91 H46          1.5150   -12.8240     1.8720 hn         1 JVC       0.330500
     92 H47         -1.8560    -8.4430    -2.0540 hn         1 JVC       0.391500
     93 H48         -0.7660    -7.3670    -1.5140 hn         1 JVC       0.391500
     94 H50          2.1530   -10.8670     0.7350 hn         1 JVC       0.318500
     95 H51          8.4020   -13.4030     3.1400 hn         1 JVC       0.358500
     96 H52          7.9700   -14.5020     5.4640 hn         1 JVC       0.326500
     97 O4           1.0250   -15.8610     3.6570 o          1 JVC      -0.602100
     98 O1           8.8780   -16.1820     1.6550 o          1 JVC      -0.631100
     99 O3           0.1910   -11.3630     4.3240 o          1 JVC      -0.639100
@<TRIPOS>BOND
     1     1    12 1   
     2     1    47 1   
     3     1    48 1   
     4     2     3 1   
     5     2     9 1   
     6     2    97 2   
     7     3     5 1   
     8     3    41 1   
     9     3    49 1   
    10     4    12 2   
    11     4    50 1   
    12     5    17 1   
    13     5    51 1   
    14     5    52 1   
    15     6    11 1   
    16     6    14 1   
    17     6    15 1   
    18     6    53 1   
    19     7     8 1   
    20     7    10 1   
    21     7    54 1   
    22     7    55 1   
    23     8     9 1   
    24     8    56 1   
    25     8    57 1   
    26     9    58 1   
    27    10    11 1   
    28    10    59 1   
    29    10    60 1   
    30    11    61 1   
    31    11    62 1   
    32    12    14 1   
    33    13    20 1   
    34    13    63 1   
    35    13    64 1   
    36    14    65 1   
    37    15    16 2   
    38    15    45 1   
    39    17    18 ar  
    40    17    23 ar  
    41    18    19 ar  
    42    18    66 1   
    43    19    20 1   
    44    19    21 ar  
    45    20    67 1   
    46    20    68 1   
    47    21    22 ar  
    48    21    69 1   
    49    22    23 ar  
    50    22    70 1   
    51    23    71 1   
    52    24    25 1   
    53    24    41 1   
    54    24    99 2   
    55    25    26 1   
    56    25    43 1   
    57    25    72 1   
    58    26    27 1   
    59    26    73 1   
    60    26    74 1   
    61    27    28 1   
    62    27    75 1   
    63    27    76 1   
    64    28    29 1   
    65    28    77 1   
    66    28    78 1   
    67    29    42 1   
    68    29    79 1   
    69    29    80 1   
    70    30    31 1   
    71    30    43 1   
    72    30    46 2   
    73    31    32 1   
    74    31    81 1   
    75    31    82 1   
    76    32    33 ar  
    77    32    40 ar  
    78    33    34 ar  
    79    33    83 1   
    80    34    35 1   
    81    34    38 ar  
    82    35    44 1   
    83    35    84 1   
    84    35    85 1   
    85    36    37 1   
    86    36    44 1   
    87    36    98 2   
    88    37    45 1   
    89    37    86 1   
    90    37    87 1   
    91    38    39 ar  
    92    38    88 1   
    93    39    40 ar  
    94    39    89 1   
    95    40    90 1   
    96    41    91 1   
    97    42    92 1   
    98    42    93 1   
    99    43    94 1   
   100    44    95 1   
   101    45    96 1   
@<TRIPOS>SUBSTRUCTURE
     1 JVC         1 TEMP              0 ****  ****    0 ROOT
