@<TRIPOS>MOLECULE
JVD
   33    34     1     0     0
SMALL
bcc


@<TRIPOS>ATOM
      1 C1          -0.7850     1.1770     0.4510 ca         1 JVD      -0.141000
      2 C2          -2.0500     1.6700     0.6680 ca         1 JVD      -0.053000
      3 C3          -1.6240    -0.8820    -0.5440 ca         1 JVD      -0.070000
      4 C4          -0.5660    -0.0920    -0.1400 ca         1 JVD      -0.122600
      5 C5          -2.9010    -0.3790    -0.3080 ca         1 JVD      -0.091200
      6 C6          -3.1260     0.8650     0.2840 ca         1 JVD       0.025400
      7 C7           0.8150    -0.6200    -0.3930 c          1 JVD       0.681700
      8 C10          3.6200    -1.1550     1.6590 c3         1 JVD      -0.107100
      9 C11          4.0150     0.7030    -0.0570 c3         1 JVD      -0.072700
     10 C12          3.1790    -0.5260     0.3430 c3         1 JVD       0.109700
     11 N13         -4.1520    -0.8390    -0.5370 na         1 JVD      -0.013100
     12 N14         -5.0570     0.0350    -0.1290 nc         1 JVD      -0.152400
     13 N15         -4.4750     1.0600     0.3650 nd         1 JVD      -0.224400
     14 N16          1.7710    -0.1750     0.4350 ns         1 JVD      -0.566900
     15 O17          1.0180    -1.4150    -1.3010 o          1 JVD      -0.605100
     16 H1           0.0580     1.8010     0.7170 ha         1 JVD       0.136000
     17 H2          -2.2050     2.6450     1.1100 ha         1 JVD       0.156000
     18 H3          -1.4640    -1.8440    -1.0110 ha         1 JVD       0.165000
     19 H4           6.0630     1.2140    -0.5270 hc         1 JVD       0.036533
     20 H5           5.9360     0.0330     0.7630 hc         1 JVD       0.036533
     21 H6           5.6440    -0.4530    -0.9080 hc         1 JVD       0.036533
     22 H7           2.4860     1.6530    -1.2980 hc         1 JVD       0.036533
     23 H8           4.1280     2.1690    -1.6470 hc         1 JVD       0.036533
     24 H9           3.5770     0.5840    -2.1800 hc         1 JVD       0.036533
     25 H10          4.6380    -1.5350     1.5980 hc         1 JVD       0.041700
     26 H11          3.5840    -0.4280     2.4750 hc         1 JVD       0.041700
     27 H12          2.9730    -1.9920     1.9220 hc         1 JVD       0.041700
     28 H13          3.9050     1.4530     0.7370 hc         1 JVD       0.041700
     29 H14          3.2660    -1.2710    -0.4520 h1         1 JVD       0.084700
     30 H15         -4.4470    -1.7080    -0.9560 hn         1 JVD       0.335700
     31 H16          1.5060     0.3990     1.2210 hn         1 JVD       0.312500
     32 C8           5.4950     0.3500    -0.1810 c3         1 JVD      -0.087100
     33 C9           3.5180     1.3100    -1.3660 c3         1 JVD      -0.087100
@<TRIPOS>BOND
     1     1     2 ar  
     2     1     4 ar  
     3     1    16 1   
     4     2     6 ar  
     5     2    17 1   
     6     3     4 ar  
     7     3     5 ar  
     8     3    18 1   
     9     4     7 1   
    10     5     6 ar  
    11     5    11 1   
    12     6    13 1   
    13     7    14 1   
    14     7    15 2   
    15     8    10 1   
    16     8    25 1   
    17     8    26 1   
    18     8    27 1   
    19     9    10 1   
    20     9    28 1   
    21     9    32 1   
    22     9    33 1   
    23    10    14 1   
    24    10    29 1   
    25    11    12 1   
    26    11    30 1   
    27    12    13 2   
    28    14    31 1   
    29    19    32 1   
    30    20    32 1   
    31    21    32 1   
    32    22    33 1   
    33    23    33 1   
    34    24    33 1   
@<TRIPOS>SUBSTRUCTURE
     1 JVD         1 TEMP              0 ****  ****    0 ROOT
