@<TRIPOS>MOLECULE
JVD
   33    34     1     0     0
SMALL
No Charge or Current Charge


@<TRIPOS>ATOM
      1 C1          -0.8310     1.0890     0.5310 ca         1 JVD      -0.123000
      2 C2          -2.1290     1.6370     0.6480 ca         1 JVD      -0.035000
      3 C3          -1.7690    -0.9750    -0.3980 ca         1 JVD      -0.052000
      4 C4          -0.6340    -0.2250     0.0060 ca         1 JVD      -0.122600
      5 C5          -3.0330    -0.3870    -0.2610 ca         1 JVD      -0.091200
      6 C6          -3.2170     0.8580     0.2370 ca         1 JVD       0.025400
      7 C7           0.7440    -0.8420    -0.1350 c          1 JVD       0.614700
      8 C10          3.5780    -1.2290     1.5300 c3         1 JVD      -0.107100
      9 C11          4.1360     0.7480    -0.0730 c3         1 JVD      -0.072700
     10 C12          3.2170    -0.4770     0.2290 c3         1 JVD       0.109700
     11 N13         -4.2740    -0.8690    -0.5630 na         1 JVD      -0.063400
     12 N14         -5.2120     0.1070    -0.2390 nc         1 JVD      -0.152400
     13 N15         -4.5670     1.1670     0.2510 nd         1 JVD      -0.224400
     14 N16          1.8090    -0.0720     0.2840 ns         1 JVD      -0.499900
     15 O17          0.9110    -1.9630    -0.5970 o          1 JVD      -0.605100
     16 H1           0.0080     1.7000     0.8510 ha         1 JVD       0.118000
     17 H2          -2.2820     2.6370     1.0480 ha         1 JVD       0.138000
     18 H3          -1.6680    -1.9800    -0.8040 ha         1 JVD       0.147000
     19 H4           6.2400     1.2370    -0.4490 hc         1 JVD       0.036533
     20 H5           6.0180    -0.0200     0.7700 hc         1 JVD       0.036533
     21 H6           5.7840    -0.4040    -0.9520 hc         1 JVD       0.036533
     22 H7           2.6800     1.9170    -1.2430 hc         1 JVD       0.036533
     23 H8           4.3630     2.3600    -1.5430 hc         1 JVD       0.036533
     24 H9           3.7130     0.8540    -2.2230 hc         1 JVD       0.036533
     25 H10          4.5730    -1.6830     1.4640 hc         1 JVD       0.041700
     26 H11          3.5600    -0.5500     2.3910 hc         1 JVD       0.041700
     27 H12          2.8630    -2.0390     1.7180 hc         1 JVD       0.041700
     28 H13          4.0450     1.4470     0.7680 hc         1 JVD       0.041700
     29 H14          3.3330    -1.1850    -0.6050 h1         1 JVD       0.084700
     30 H15         -4.5320    -1.7700    -0.9560 hn         1 JVD       0.386000
     31 H16          1.5900     0.8410     0.6570 hn         1 JVD       0.312500
     32 C8           5.6330     0.3630    -0.1820 c3         1 JVD      -0.087100
     33 C9           3.6940     1.5130    -1.3470 c3         1 JVD      -0.087100
@<TRIPOS>BOND
     1     1     2 ar  
     2     1     4 ar  
     3     1    16 1   
     4     2     6 ar  
     5     2    17 1   
     6     3     4 ar  
     7     3     5 ar  
     8     3    18 1   
     9     4     7 1   
    10     5     6 ar  
    11     5    11 1   
    12     6    13 1   
    13     7    14 1   
    14     7    15 2   
    15     8    10 1   
    16     8    25 1   
    17     8    26 1   
    18     8    27 1   
    19     9    10 1   
    20     9    28 1   
    21     9    32 1   
    22     9    33 1   
    23    10    14 1   
    24    10    29 1   
    25    11    12 1   
    26    11    30 1   
    27    12    13 2   
    28    14    31 1   
    29    19    32 1   
    30    20    32 1   
    31    21    32 1   
    32    22    33 1   
    33    23    33 1   
    34    24    33 1   
@<TRIPOS>SUBSTRUCTURE
     1 JVD         1 TEMP              0 ****  ****    0 ROOT
