@<TRIPOS>MOLECULE
JVE
   34    37     1     0     0
SMALL
No Charge or Current Charge


@<TRIPOS>ATOM
      1 C8          -3.3700    -0.9480    -0.8010 c6         1 JVE       0.176000
      2 N9          -3.3480    -2.3570    -0.3020 n7         1 JVE      -0.830400
      3 C10         -1.9520    -2.9160    -0.2960 c6         1 JVE       0.045800
      4 C11         -1.0140    -2.0590     0.5930 c          1 JVE       0.555300
      5 C12         -2.2100    -0.0760    -0.2610 c2         1 JVE       0.158800
      6 C13         -1.1000    -0.5890     0.3380 ce         1 JVE      -0.321400
      7 C14          0.1210     0.2620     0.7680 c6         1 JVE       0.159100
      8 O15         -0.2230    -2.5610     1.3840 o          1 JVE      -0.533100
      9 C16          1.3780    -0.1380    -0.0200 ca         1 JVE      -0.105300
     10 C17          2.5950    -0.4350     0.6320 ca         1 JVE       0.186000
     11 C18          1.3260    -0.2000    -1.4290 ca         1 JVE      -0.076000
     12 C19          3.7320    -0.7980    -0.1090 ca         1 JVE      -0.154000
     13 F20          2.6910    -0.3710     1.9800 f          1 JVE      -0.181000
     14 C21          2.4650    -0.5640    -2.1690 ca         1 JVE      -0.132000
     15 C22          3.6680    -0.8650    -1.5110 ca         1 JVE      -0.087000
     16 C24         -0.1680     1.7290     0.5620 cc         1 JVE      -0.216300
     17 N25         -1.4280     3.4820    -0.1730 nd         1 JVE      -0.557800
     18 N26         -2.2560     1.3010    -0.4460 nu         1 JVE      -0.767900
     19 C27          0.5730     2.8330     0.8560 cd         1 JVE      -0.127000
     20 N28         -0.2180     3.9070     0.3990 na         1 JVE      -0.004200
     21 H81C        -3.2980    -0.9620    -1.8990 h1         1 JVE       0.070200
     22 H82C        -4.3360    -0.4850    -0.5510 h1         1 JVE       0.070200
     23 H9          -3.6980    -2.3540     0.6670 hn         1 JVE       0.419000
     24 H101        -1.9420    -3.9450     0.0930 h1         1 JVE       0.082200
     25 H102        -1.5290    -2.9180    -1.3120 h1         1 JVE       0.082200
     26 H26         -3.0760     1.7230    -0.8790 hn         1 JVE       0.514000
     27 H14          0.2800     0.0930     1.8420 hc         1 JVE       0.084700
     28 H18          0.4020     0.0370    -1.9520 ha         1 JVE       0.115000
     29 H19          4.6620    -1.0250     0.4060 ha         1 JVE       0.129000
     30 H21          2.4140    -0.6100    -3.2550 ha         1 JVE       0.114000
     31 H22          4.5490    -1.1450    -2.0850 ha         1 JVE       0.114000
     32 H27          1.5470     2.9510     1.3190 h4         1 JVE       0.163000
     33 H28          0.0260     4.8960     0.4570 hn         1 JVE       0.378000
     34 C23         -1.3240     2.1890    -0.0420 cc         1 JVE       0.477900
@<TRIPOS>BOND
     1     1     2 1   
     2     1     5 1   
     3     1    21 1   
     4     1    22 1   
     5     2     3 1   
     6     2    23 1   
     7     3     4 1   
     8     3    24 1   
     9     3    25 1   
    10     4     6 1   
    11     4     8 2   
    12     5     6 2   
    13     5    18 1   
    14     6     7 1   
    15     7     9 1   
    16     7    16 1   
    17     7    27 1   
    18     9    10 ar  
    19     9    11 ar  
    20    10    12 ar  
    21    10    13 1   
    22    11    14 ar  
    23    11    28 1   
    24    12    15 ar  
    25    12    29 1   
    26    14    15 ar  
    27    14    30 1   
    28    15    31 1   
    29    16    19 2   
    30    16    34 1   
    31    17    20 1   
    32    17    34 2   
    33    18    26 1   
    34    18    34 1   
    35    19    20 1   
    36    19    32 1   
    37    20    33 1   
@<TRIPOS>SUBSTRUCTURE
     1 JVE         1 TEMP              0 ****  ****    0 ROOT
