@<TRIPOS>MOLECULE
JVE
   34    37     1     0     0
SMALL
bcc


@<TRIPOS>ATOM
      1 C8          -3.2200    -0.9530    -0.9030 c6         1 JVE       0.176000
      2 N9          -3.3820    -2.1870    -0.1770 n7         1 JVE      -0.775200
      3 C10         -2.1240    -2.8880    -0.0360 c6         1 JVE       0.045800
      4 C11         -0.9720    -2.0460     0.4830 c          1 JVE       0.555300
      5 C12         -2.1140    -0.0800    -0.3690 c2         1 JVE       0.158800
      6 C13         -1.0400    -0.6170     0.2880 ce         1 JVE      -0.321400
      7 C14          0.1510     0.1980     0.7600 c6         1 JVE       0.159100
      8 O15         -0.0100    -2.5820     1.0210 o          1 JVE      -0.533100
      9 C16          1.3930    -0.1540    -0.0420 ca         1 JVE      -0.105300
     10 C17          2.5940    -0.5030     0.5520 ca         1 JVE       0.150900
     11 C18          1.3700    -0.1140    -1.4330 ca         1 JVE      -0.094000
     12 C19          3.7340    -0.8050    -0.1700 ca         1 JVE      -0.172000
     13 F20          2.6710    -0.5510     1.8960 f          1 JVE      -0.145900
     14 C21          2.4940    -0.4110    -2.1890 ca         1 JVE      -0.150000
     15 C22          3.6800    -0.7600    -1.5550 ca         1 JVE      -0.105000
     16 C24         -0.1750     1.6500     0.6060 cc         1 JVE      -0.281600
     17 N25         -1.3790     3.4210    -0.1420 nd         1 JVE      -0.557800
     18 N26         -2.2400     1.2430    -0.6070 nu         1 JVE      -0.712700
     19 C27          0.4630     2.8120     0.9760 cd         1 JVE      -0.094300
     20 N28         -0.2870     3.8240     0.5110 na         1 JVE      -0.004600
     21 H81C        -2.9970    -1.1770    -1.9530 h1         1 JVE       0.070200
     22 H82C        -4.1630    -0.4020    -0.8960 h1         1 JVE       0.070200
     23 H9          -3.7610    -1.9850     0.7400 hn         1 JVE       0.363800
     24 H101        -2.2570    -3.7500     0.6200 h1         1 JVE       0.082200
     25 H102        -1.8250    -3.2840    -1.0150 h1         1 JVE       0.082200
     26 H26         -3.0780     1.6080    -1.0310 hn         1 JVE       0.458800
     27 H14          0.3390    -0.0290     1.8120 hc         1 JVE       0.084700
     28 H18          0.4460     0.1510    -1.9330 ha         1 JVE       0.133000
     29 H19          4.6460    -1.0770     0.3460 ha         1 JVE       0.147000
     30 H21          2.4440    -0.3740    -3.2690 ha         1 JVE       0.132000
     31 H22          4.5630    -0.9990    -2.1340 ha         1 JVE       0.132000
     32 H27          1.3780     2.9860     1.5180 h4         1 JVE       0.181000
     33 H28         -0.1010     4.8090     0.6100 hn         1 JVE       0.327700
     34 C23         -1.3040     2.1090    -0.0820 cc         1 JVE       0.543200
@<TRIPOS>BOND
     1     1     2 1   
     2     1     5 1   
     3     1    21 1   
     4     1    22 1   
     5     2     3 1   
     6     2    23 1   
     7     3     4 1   
     8     3    24 1   
     9     3    25 1   
    10     4     6 1   
    11     4     8 2   
    12     5     6 2   
    13     5    18 1   
    14     6     7 1   
    15     7     9 1   
    16     7    16 1   
    17     7    27 1   
    18     9    10 ar  
    19     9    11 ar  
    20    10    12 ar  
    21    10    13 1   
    22    11    14 ar  
    23    11    28 1   
    24    12    15 ar  
    25    12    29 1   
    26    14    15 ar  
    27    14    30 1   
    28    15    31 1   
    29    16    19 2   
    30    16    34 1   
    31    17    20 1   
    32    17    34 2   
    33    18    26 1   
    34    18    34 1   
    35    19    20 1   
    36    19    32 1   
    37    20    33 1   
@<TRIPOS>SUBSTRUCTURE
     1 JVE         1 TEMP              0 ****  ****    0 ROOT
