@<TRIPOS>MOLECULE
JVF
   37    37     1     0     0
SMALL
No Charge or Current Charge


@<TRIPOS>ATOM
      1 C01          6.1080   -40.4920    19.6280 c3         1 JVF      -0.112100
      2 C02          6.3350   -40.6060    18.1040 c3         1 JVF       0.177800
      3 C04          4.3270   -41.9090    17.4700 c3         1 JVF       0.177800
      4 C05          3.2700   -42.1890    16.3820 c3         1 JVF      -0.112100
      5 C06          4.2610   -39.4120    17.3380 c3         1 JVF       0.144800
      6 C07          4.9810   -38.0960    16.9380 c3         1 JVF       0.106000
      7 C09          4.8300   -38.0580    14.4230 c          1 JVF       0.614700
      8 C11          5.5960   -38.3270    13.1340 ca         1 JVF      -0.156600
      9 C12          6.8090   -39.0640    13.1860 ca         1 JVF      -0.084000
     10 C13          7.5430   -39.3390    12.0210 ca         1 JVF      -0.121000
     11 C14          7.0830   -38.8860    10.7800 ca         1 JVF      -0.085000
     12 C15          5.8870   -38.1600    10.7060 ca         1 JVF      -0.104000
     13 C16          5.1350   -37.8750    11.8620 ca         1 JVF      -0.025000
     14 N03          5.0980   -40.6530    17.2750 n3         1 JVF      -0.746600
     15 N08          5.5560   -38.1550    15.5880 ns         1 JVF      -0.473900
     16 O10          3.6330   -37.7990    14.4520 o          1 JVF      -0.625100
     17 S17          3.6440   -36.9140    11.6340 sh         1 JVF      -0.215800
     18 H1           7.0730   -40.4900    20.1490 hc         1 JVF       0.038200
     19 H2           5.5880   -39.5620    19.8830 hc         1 JVF       0.038200
     20 H3           5.5240   -41.3380    20.0070 hc         1 JVF       0.038200
     21 H4           6.9270   -41.5140    17.9200 h1         1 JVF       0.036200
     22 H5           6.9690   -39.7680    17.7880 h1         1 JVF       0.036200
     23 H6           3.8270   -41.9020    18.4480 h1         1 JVF       0.036200
     24 H7           5.0200   -42.7620    17.4710 h1         1 JVF       0.036200
     25 H8           2.8570   -43.1960    16.5120 hc         1 JVF       0.038200
     26 H9           2.4370   -41.4780    16.4390 hc         1 JVF       0.038200
     27 H10          3.7180   -42.1290    15.3830 hc         1 JVF       0.038200
     28 H11          3.8480   -39.2850    18.3480 h1         1 JVF       0.047200
     29 H12          3.4000   -39.5080    16.6650 h1         1 JVF       0.047200
     30 H13          5.7820   -37.8770    17.6550 h1         1 JVF       0.052700
     31 H14          4.2640   -37.2660    16.9850 h1         1 JVF       0.052700
     32 H15          7.1900   -39.4560    14.1260 ha         1 JVF       0.124000
     33 H16          8.4670   -39.9090    12.0830 ha         1 JVF       0.118000
     34 H17          7.6510   -39.0970     9.8760 ha         1 JVF       0.117000
     35 H18          5.5380   -37.8090     9.7370 ha         1 JVF       0.129000
     36 H20          6.5370   -38.3760    15.4970 hn         1 JVF       0.320500
     37 H21          3.1490   -37.1400    12.8790 hs         1 JVF       0.256800
@<TRIPOS>BOND
     1     1     2 1   
     2     1    18 1   
     3     1    19 1   
     4     1    20 1   
     5     2    14 1   
     6     2    21 1   
     7     2    22 1   
     8     3     4 1   
     9     3    14 1   
    10     3    23 1   
    11     3    24 1   
    12     4    25 1   
    13     4    26 1   
    14     4    27 1   
    15     5     6 1   
    16     5    14 1   
    17     5    28 1   
    18     5    29 1   
    19     6    15 1   
    20     6    30 1   
    21     6    31 1   
    22     7     8 1   
    23     7    15 1   
    24     7    16 2   
    25     8     9 ar  
    26     8    13 ar  
    27     9    10 ar  
    28     9    32 1   
    29    10    11 ar  
    30    10    33 1   
    31    11    12 ar  
    32    11    34 1   
    33    12    13 ar  
    34    12    35 1   
    35    13    17 1   
    36    15    36 1   
    37    17    37 1   
@<TRIPOS>SUBSTRUCTURE
     1 JVF         1 TEMP              0 ****  ****    0 ROOT
