@<TRIPOS>MOLECULE
JVF
   37    37     1     0     0
SMALL
bcc


@<TRIPOS>ATOM
      1 C01          6.0240   -40.6300    19.6770 c3         1 JVF      -0.112100
      2 C02          6.3580   -40.3870    18.2050 c3         1 JVF       0.177800
      3 C04          4.5740   -41.6810    17.1830 c3         1 JVF       0.177800
      4 C05          3.8890   -41.8940    15.8410 c3         1 JVF      -0.112100
      5 C06          4.3250   -39.2850    17.4500 c3         1 JVF       0.144800
      6 C07          4.8940   -37.9580    16.9560 c3         1 JVF       0.106000
      7 C09          4.6550   -38.1910    14.5300 c          1 JVF       0.681700
      8 C11          5.4000   -38.5230    13.2740 ca         1 JVF      -0.156600
      9 C12          6.3450   -39.5480    13.3200 ca         1 JVF      -0.102000
     10 C13          7.0600   -39.9210    12.1940 ca         1 JVF      -0.139000
     11 C14          6.8350   -39.2570    10.9980 ca         1 JVF      -0.103000
     12 C15          5.8840   -38.2510    10.9290 ca         1 JVF      -0.122000
     13 C16          5.1490   -37.8820    12.0540 ca         1 JVF       0.101900
     14 N03          5.2420   -40.3920    17.2750 n3         1 JVF      -0.746600
     15 N08          5.4240   -38.0380    15.6140 ns         1 JVF      -0.540900
     16 O10          3.4330   -38.0790    14.5520 o          1 JVF      -0.625100
     17 S17          4.0240   -36.5350    11.8310 sh         1 JVF      -0.342700
     18 H1           6.9380   -40.6070    20.2730 hc         1 JVF       0.038200
     19 H2           5.3550   -39.8700    20.0820 hc         1 JVF       0.038200
     20 H3           5.5580   -41.6040    19.8320 hc         1 JVF       0.038200
     21 H4           7.0680   -41.1500    17.8740 h1         1 JVF       0.036200
     22 H5           6.8880   -39.4350    18.1120 h1         1 JVF       0.036200
     23 H6           3.8450   -41.8360    17.9940 h1         1 JVF       0.036200
     24 H7           5.3330   -42.4570    17.3110 h1         1 JVF       0.036200
     25 H8           3.4440   -42.8890    15.7980 hc         1 JVF       0.038200
     26 H9           3.0900   -41.1740    15.6640 hc         1 JVF       0.038200
     27 H10          4.6070   -41.8060    15.0250 hc         1 JVF       0.038200
     28 H11          4.0020   -39.1470    18.4930 h1         1 JVF       0.047200
     29 H12          3.4160   -39.4950    16.8870 h1         1 JVF       0.047200
     30 H13          5.7060   -37.6140    17.5970 h1         1 JVF       0.052700
     31 H14          4.1150   -37.1960    17.0070 h1         1 JVF       0.052700
     32 H15          6.5100   -40.0730    14.2540 ha         1 JVF       0.142000
     33 H16          7.7850   -40.7220    12.2530 ha         1 JVF       0.136000
     34 H17          7.3870   -39.5290    10.1080 ha         1 JVF       0.135000
     35 H18          5.7020   -37.7530     9.9850 ha         1 JVF       0.147000
     36 H20          6.4180   -38.1580    15.5160 hn         1 JVF       0.320500
     37 H21          3.1790   -36.8280    12.8230 hs         1 JVF       0.256800
@<TRIPOS>BOND
     1     1     2 1   
     2     1    18 1   
     3     1    19 1   
     4     1    20 1   
     5     2    14 1   
     6     2    21 1   
     7     2    22 1   
     8     3     4 1   
     9     3    14 1   
    10     3    23 1   
    11     3    24 1   
    12     4    25 1   
    13     4    26 1   
    14     4    27 1   
    15     5     6 1   
    16     5    14 1   
    17     5    28 1   
    18     5    29 1   
    19     6    15 1   
    20     6    30 1   
    21     6    31 1   
    22     7     8 1   
    23     7    15 1   
    24     7    16 2   
    25     8     9 ar  
    26     8    13 ar  
    27     9    10 ar  
    28     9    32 1   
    29    10    11 ar  
    30    10    33 1   
    31    11    12 ar  
    32    11    34 1   
    33    12    13 ar  
    34    12    35 1   
    35    13    17 1   
    36    15    36 1   
    37    17    37 1   
@<TRIPOS>SUBSTRUCTURE
     1 JVF         1 TEMP              0 ****  ****    0 ROOT
