@<TRIPOS>MOLECULE
JVH
   58    63     1     0     0
SMALL
No Charge or Current Charge


@<TRIPOS>ATOM
      1 C2          -4.8210    -1.2330     0.7110 c          1 JVH       0.580000
      2 C4          -2.4220    -0.5100     0.9110 c3         1 JVH       0.016000
      3 C5          -1.6050    -0.2490    -0.3700 c          1 JVH       0.592100
      4 C8           0.7090    -0.2960    -1.3300 c3         1 JVH       0.158300
      5 C11          4.2220     0.0920     0.1480 ca         1 JVH      -0.205300
      6 C12          4.7200    -1.2220     0.0240 ca         1 JVH       0.346000
      7 N13          6.0200    -1.5120     0.4460 nu         1 JVH      -0.971200
      8 C16          6.1520     0.5630     1.7170 c6         1 JVH      -0.108400
      9 C17          5.1150     1.1850     0.7580 c6         1 JVH       0.221600
     10 C21          7.6950     0.2430    -0.2950 c6         1 JVH       0.109300
     11 C24          3.9190    -2.2270    -0.5320 ca         1 JVH      -0.198000
     12 C30         -6.1890    -0.5260     0.6500 c5         1 JVH      -0.152700
     13 C32         -6.8170    -0.6710    -0.7820 c5         1 JVH      -0.055700
     14 C34         -6.0460     0.3780    -1.6160 c5         1 JVH      -0.096400
     15 C35         -6.3510     1.5490    -0.6530 c5         1 JVH      -0.055700
     16 C37         -7.9140     1.5130    -0.6160 c5         1 JVH      -0.081400
     17 C38         -8.2340    -0.0170    -0.7030 c5         1 JVH      -0.081400
     18 O1          -4.5810    -2.4270     0.8140 o          1 JVH      -0.502500
     19 N3          -3.8800    -0.2120     0.7960 n          1 JVH      -0.370400
     20 O6          -2.1040     0.1240    -1.4240 o          1 JVH      -0.602100
     21 N7          -0.2530    -0.4750    -0.2490 ns         1 JVH      -0.501900
     22 C9           2.1150    -0.6190    -0.8560 ca         1 JVH      -0.178300
     23 C10          2.9210     0.3910    -0.2960 ca         1 JVH      -0.028000
     24 C14          6.9700    -0.4700     0.9080 c6         1 JVH       0.240500
     25 C20          6.6510     1.0500    -1.1380 c6         1 JVH       0.121600
     26 O23          8.7460     1.1090     0.1940 oh         1 JVH      -0.711000
     27 C25          2.6180    -1.9300    -0.9700 ca         1 JVH      -0.038000
     28 C26         -4.3370     1.1000     0.8540 c          1 JVH       0.580000
     29 O27         -3.6450     2.0760     1.1070 o          1 JVH      -0.502500
     30 C28         -5.8710     1.0070     0.7410 c5         1 JVH      -0.152700
     31 H1          -2.2660    -1.5590     1.1910 h1         1 JVH       0.080200
     32 H2          -1.9880     0.1050     1.7100 h1         1 JVH       0.080200
     33 H3           0.4350    -0.9530    -2.1670 h1         1 JVH       0.061700
     34 H4           0.6610     0.7430    -1.6850 h1         1 JVH       0.061700
     35 H5           6.3510    -2.4690     0.3090 hn         1 JVH       0.483000
     36 H6           6.8040     1.3410     2.1340 hc         1 JVH       0.071700
     37 H7           5.6500     0.0790     2.5650 hc         1 JVH       0.071700
     38 H8           4.4930     1.9040     1.3130 h1         1 JVH       0.083700
     39 H9           8.1360    -0.5300    -0.9420 h1         1 JVH       0.033700
     40 H10          4.3020    -3.2380    -0.6270 ha         1 JVH       0.114000
     41 H11         -6.8390    -0.9280     1.4360 hc         1 JVH       0.091700
     42 H12         -6.8120    -1.6910    -1.1860 hc         1 JVH       0.086700
     43 H13         -4.9780     0.1610    -1.7320 hc         1 JVH       0.070700
     44 H14         -6.4640     0.5250    -2.6200 hc         1 JVH       0.070700
     45 H15         -5.9290     2.5200    -0.9410 hc         1 JVH       0.086700
     46 H16         -8.3260     1.9770     0.2880 hc         1 JVH       0.048200
     47 H17         -8.3410     2.0500    -1.4710 hc         1 JVH       0.048200
     48 H18         -8.8230    -0.2410    -1.6000 hc         1 JVH       0.048200
     49 H19         -8.8170    -0.3730     0.1550 hc         1 JVH       0.048200
     50 H20          0.0910    -0.7860     0.6520 hn         1 JVH       0.314500
     51 H21          2.5380     1.4060    -0.2050 ha         1 JVH       0.114000
     52 H22          7.7390    -0.9200     1.5570 h1         1 JVH       0.076700
     53 H23          7.1710     1.6850    -1.8690 h1         1 JVH       0.051700
     54 H24          6.0160     0.3620    -1.7130 h1         1 JVH       0.051700
     55 H25          9.1540     1.5430    -0.5910 ho         1 JVH       0.508000
     56 H26          2.0010    -2.7170    -1.4000 ha         1 JVH       0.118000
     57 H27         -6.3290     1.5430     1.5800 hc         1 JVH       0.091700
     58 O19          5.8190     1.8940    -0.2960 os         1 JVH      -0.438000
@<TRIPOS>BOND
     1     1    12 1   
     2     1    18 2   
     3     1    19 1   
     4     2     3 1   
     5     2    19 1   
     6     2    31 1   
     7     2    32 1   
     8     3    20 2   
     9     3    21 1   
    10     4    21 1   
    11     4    22 1   
    12     4    33 1   
    13     4    34 1   
    14     5     6 ar  
    15     5     9 1   
    16     5    23 ar  
    17     6     7 1   
    18     6    11 ar  
    19     7    24 1   
    20     7    35 1   
    21     8     9 1   
    22     8    24 1   
    23     8    36 1   
    24     8    37 1   
    25     9    38 1   
    26     9    58 1   
    27    10    24 1   
    28    10    25 1   
    29    10    26 1   
    30    10    39 1   
    31    11    27 ar  
    32    11    40 1   
    33    12    13 1   
    34    12    30 1   
    35    12    41 1   
    36    13    14 1   
    37    13    17 1   
    38    13    42 1   
    39    14    15 1   
    40    14    43 1   
    41    14    44 1   
    42    15    16 1   
    43    15    30 1   
    44    15    45 1   
    45    16    17 1   
    46    16    46 1   
    47    16    47 1   
    48    17    48 1   
    49    17    49 1   
    50    19    28 1   
    51    21    50 1   
    52    22    23 ar  
    53    22    27 ar  
    54    23    51 1   
    55    24    52 1   
    56    25    53 1   
    57    25    54 1   
    58    25    58 1   
    59    26    55 1   
    60    27    56 1   
    61    28    29 2   
    62    28    30 1   
    63    30    57 1   
@<TRIPOS>SUBSTRUCTURE
     1 JVH         1 TEMP              0 ****  ****    0 ROOT
