@<TRIPOS>MOLECULE
JVH
   58    63     1     0     0
SMALL
abcg2


@<TRIPOS>ATOM
      1 C2          -4.6470    -1.3320     0.6170 c          1 JVH       0.580000
      2 C4          -2.4030    -0.4160     1.1730 c3         1 JVH       0.016000
      3 C5          -1.6210     0.0400    -0.0540 c          1 JVH       0.592100
      4 C8           0.6210     0.7680    -0.7930 c3         1 JVH       0.158300
      5 C11          4.2800     0.3910     0.2000 ca         1 JVH      -0.205300
      6 C12          4.4560    -1.0010     0.1320 ca         1 JVH       0.346000
      7 N13          5.6570    -1.5670     0.4610 nu         1 JVH      -0.971200
      8 C16          6.3770     0.4800     1.5020 c6         1 JVH      -0.108400
      9 C17          5.4580     1.2540     0.5690 c6         1 JVH       0.221600
     10 C21          7.5640    -0.3470    -0.5310 c6         1 JVH       0.109300
     11 C24          3.3680    -1.7980    -0.2580 ca         1 JVH      -0.198000
     12 C30         -6.0420    -0.7880     0.4390 c5         1 JVH      -0.152700
     13 C32         -6.5640    -0.9010    -1.0050 c5         1 JVH      -0.055700
     14 C34         -5.8510     0.2700    -1.6910 c5         1 JVH      -0.096400
     15 C35         -6.3560     1.3220    -0.6970 c5         1 JVH      -0.055700
     16 C37         -7.8760     1.1200    -0.7840 c5         1 JVH      -0.081400
     17 C38         -8.0190    -0.4110    -0.9920 c5         1 JVH      -0.081400
     18 O1          -4.2880    -2.4770     0.4960 o          1 JVH      -0.502500
     19 N3          -3.8140    -0.2870     0.9580 n          1 JVH      -0.370400
     20 O6          -2.1220     0.0280    -1.1670 o          1 JVH      -0.602100
     21 N7          -0.3590     0.3960     0.2100 ns         1 JVH      -0.501900
     22 C9           1.9610     0.1580    -0.4890 ca         1 JVH      -0.178300
     23 C10          3.0420     0.9400    -0.1050 ca         1 JVH      -0.028000
     24 C14          6.8240    -0.7670     0.7500 c6         1 JVH       0.240500
     25 C20          6.7080     0.6180    -1.3440 c6         1 JVH       0.121600
     26 O23          8.7860     0.2240    -0.1180 oh         1 JVH      -0.711000
     27 C25          2.1510    -1.2230    -0.5630 ca         1 JVH      -0.038000
     28 C26         -4.4390     0.9410     0.9350 c          1 JVH       0.580000
     29 O27         -3.8610     1.9850     1.1150 o          1 JVH      -0.502500
     30 C28         -5.9030     0.7310     0.6510 c5         1 JVH      -0.152700
     31 H1          -2.1750    -1.4660     1.3600 h1         1 JVH       0.080200
     32 H2          -2.1120     0.1410     2.0640 h1         1 JVH       0.080200
     33 H3           0.2510     0.4310    -1.7610 h1         1 JVH       0.061700
     34 H4           0.7090     1.8560    -0.8460 h1         1 JVH       0.061700
     35 H5           5.8110    -2.5220     0.1800 hn         1 JVH       0.483000
     36 H6           7.2370     1.0840     1.7920 hc         1 JVH       0.071700
     37 H7           5.8450     0.2040     2.4150 hc         1 JVH       0.071700
     38 H8           5.1070     2.1730     1.0460 h1         1 JVH       0.083700
     39 H9           7.7370    -1.2400    -1.1510 h1         1 JVH       0.033700
     40 H10          3.4900    -2.8730    -0.3230 ha         1 JVH       0.114000
     41 H11         -6.7020    -1.2840     1.1540 hc         1 JVH       0.091700
     42 H12         -6.4260    -1.8890    -1.4430 hc         1 JVH       0.086700
     43 H13         -4.7630     0.1740    -1.7360 hc         1 JVH       0.070700
     44 H14         -6.2140     0.4470    -2.7050 hc         1 JVH       0.070700
     45 H15         -6.0310     2.3490    -0.8580 hc         1 JVH       0.086700
     46 H16         -8.3910     1.4780     0.1100 hc         1 JVH       0.048200
     47 H17         -8.2810     1.6720    -1.6330 hc         1 JVH       0.048200
     48 H18         -8.5010    -0.6370    -1.9450 hc         1 JVH       0.048200
     49 H19         -8.6080    -0.8920    -0.2100 hc         1 JVH       0.048200
     50 H20         -0.0620     0.4350     1.1730 hn         1 JVH       0.314500
     51 H21          2.9240     2.0170    -0.0380 ha         1 JVH       0.114000
     52 H22          7.4980    -1.3680     1.3630 h1         1 JVH       0.076700
     53 H23          7.3080     1.0700    -2.1390 h1         1 JVH       0.051700
     54 H24          5.9100     0.0520    -1.8410 h1         1 JVH       0.051700
     55 H25          9.2710     0.5100    -0.8980 ho         1 JVH       0.508000
     56 H26          1.3280    -1.8630    -0.8610 ha         1 JVH       0.118000
     57 H27         -6.4810     1.1230     1.4900 hc         1 JVH       0.091700
     58 O19          6.1830     1.6820    -0.5800 os         1 JVH      -0.438000
@<TRIPOS>BOND
     1     1    12 1   
     2     1    18 2   
     3     1    19 1   
     4     2     3 1   
     5     2    19 1   
     6     2    31 1   
     7     2    32 1   
     8     3    20 2   
     9     3    21 1   
    10     4    21 1   
    11     4    22 1   
    12     4    33 1   
    13     4    34 1   
    14     5     6 ar  
    15     5     9 1   
    16     5    23 ar  
    17     6     7 1   
    18     6    11 ar  
    19     7    24 1   
    20     7    35 1   
    21     8     9 1   
    22     8    24 1   
    23     8    36 1   
    24     8    37 1   
    25     9    38 1   
    26     9    58 1   
    27    10    24 1   
    28    10    25 1   
    29    10    26 1   
    30    10    39 1   
    31    11    27 ar  
    32    11    40 1   
    33    12    13 1   
    34    12    30 1   
    35    12    41 1   
    36    13    14 1   
    37    13    17 1   
    38    13    42 1   
    39    14    15 1   
    40    14    43 1   
    41    14    44 1   
    42    15    16 1   
    43    15    30 1   
    44    15    45 1   
    45    16    17 1   
    46    16    46 1   
    47    16    47 1   
    48    17    48 1   
    49    17    49 1   
    50    19    28 1   
    51    21    50 1   
    52    22    23 ar  
    53    22    27 ar  
    54    23    51 1   
    55    24    52 1   
    56    25    53 1   
    57    25    54 1   
    58    25    58 1   
    59    26    55 1   
    60    27    56 1   
    61    28    29 2   
    62    28    30 1   
    63    30    57 1   
@<TRIPOS>SUBSTRUCTURE
     1 JVH         1 TEMP              0 ****  ****    0 ROOT
