@<TRIPOS>MOLECULE
JVI
   46    49     1     0     0
SMALL
abcg2


@<TRIPOS>ATOM
      1 C02         -5.9920    -8.5950    40.5540 c          1 JVI       0.553000
      2 C03         -5.8040    -7.2720    39.8360 c6         1 JVI       0.153800
      3 C05         -7.3440    -6.3540    38.1530 ca         1 JVI       0.439900
      4 C07         -8.0730    -4.1990    38.4140 ca         1 JVI       0.417900
      5 C09         -6.8690    -2.6830    39.9470 c3         1 JVI       0.242800
      6 C10         -7.0640    -1.2860    40.5050 c3         1 JVI      -0.113100
      7 C12         -9.1990    -5.5000    36.9840 ca         1 JVI       0.170300
      8 C13         -8.3760    -6.5880    37.2400 ca         1 JVI      -0.297300
      9 C14         -8.8690    -7.8110    36.5210 c5         1 JVI       0.000900
     10 C15        -10.3030    -7.4120    36.1250 c5         1 JVI      -0.081400
     11 C16        -10.2860    -5.8810    36.0230 c5         1 JVI      -0.137700
     12 C17         -6.0440    -8.3830    37.7240 ca         1 JVI       0.223000
     13 C18         -5.7960    -8.2810    36.3670 ca         1 JVI      -0.067000
     14 C19         -5.4010    -9.3860    35.6230 ca         1 JVI      -0.205000
     15 C20         -5.2080   -10.6100    36.2590 ca         1 JVI       0.156100
     16 C22         -4.5630   -11.6880    34.2490 c3         1 JVI       0.148900
     17 C23         -5.4010   -10.7110    37.6370 ca         1 JVI      -0.178000
     18 C24         -5.8150    -9.6070    38.3600 ca         1 JVI      -0.012000
     19 N04         -6.4410    -7.3160    38.5370 nh         1 JVI      -0.808100
     20 N06         -7.2140    -5.1630    38.7370 nb         1 JVI      -0.321000
     21 N08         -7.9360    -3.0100    39.0300 nu         1 JVI      -0.929100
     22 N11         -9.0750    -4.3030    37.5270 nb         1 JVI      -0.259000
     23 N25         -6.0190    -9.6780    39.7360 ns         1 JVI      -0.143000
     24 O01         -6.0850    -8.6790    41.7620 o          1 JVI      -0.532000
     25 O21         -4.8220   -11.7400    35.6370 os         1 JVI      -0.339100
     26 H1          -4.7290    -7.0680    39.7510 h1         1 JVI       0.090200
     27 H2          -6.2410    -6.4800    40.4350 h1         1 JVI       0.090200
     28 H3          -6.8500    -3.4080    40.7650 h1         1 JVI       0.048700
     29 H4          -5.8960    -2.7520    39.4500 h1         1 JVI       0.048700
     30 H5          -6.2550    -1.0410    41.1920 hc         1 JVI       0.043367
     31 H6          -7.0660    -0.5370    39.7120 hc         1 JVI       0.043367
     32 H7          -8.0050    -1.2050    41.0520 hc         1 JVI       0.043367
     33 H8          -8.8460    -8.7130    37.1350 hc         1 JVI       0.050200
     34 H9          -8.2690    -8.0280    35.6320 hc         1 JVI       0.050200
     35 H10        -10.9960    -7.7130    36.9130 hc         1 JVI       0.047700
     36 H11        -10.6280    -7.8940    35.2040 hc         1 JVI       0.047700
     37 H12        -10.0130    -5.5490    35.0160 hc         1 JVI       0.065700
     38 H13        -11.2410    -5.4150    36.2660 hc         1 JVI       0.065700
     39 H14         -5.9260    -7.3280    35.8690 ha         1 JVI       0.129000
     40 H15         -5.2370    -9.2650    34.5620 ha         1 JVI       0.123000
     41 H16         -4.2630   -12.6890    33.9520 h1         1 JVI       0.042367
     42 H17         -5.4510   -11.4020    33.6780 h1         1 JVI       0.042367
     43 H18         -3.7540   -10.9920    34.0100 h1         1 JVI       0.042367
     44 H19         -5.2260   -11.6560    38.1380 ha         1 JVI       0.134000
     45 H20         -8.5400    -2.2700    38.7110 hn         1 JVI       0.506000
     46 H21         -6.0560   -10.5900    40.1720 hn         1 JVI       0.161000
@<TRIPOS>BOND
     1     1     2 1   
     2     1    23 1   
     3     1    24 2   
     4     2    19 1   
     5     2    26 1   
     6     2    27 1   
     7     3     8 ar  
     8     3    19 1   
     9     3    20 ar  
    10     4    20 ar  
    11     4    21 1   
    12     4    22 ar  
    13     5     6 1   
    14     5    21 1   
    15     5    28 1   
    16     5    29 1   
    17     6    30 1   
    18     6    31 1   
    19     6    32 1   
    20     7     8 ar  
    21     7    11 1   
    22     7    22 ar  
    23     8     9 1   
    24     9    10 1   
    25     9    33 1   
    26     9    34 1   
    27    10    11 1   
    28    10    35 1   
    29    10    36 1   
    30    11    37 1   
    31    11    38 1   
    32    12    13 ar  
    33    12    18 ar  
    34    12    19 1   
    35    13    14 ar  
    36    13    39 1   
    37    14    15 ar  
    38    14    40 1   
    39    15    17 ar  
    40    15    25 1   
    41    16    25 1   
    42    16    41 1   
    43    16    42 1   
    44    16    43 1   
    45    17    18 ar  
    46    17    44 1   
    47    18    23 1   
    48    21    45 1   
    49    23    46 1   
@<TRIPOS>SUBSTRUCTURE
     1 JVI         1 TEMP              0 ****  ****    0 ROOT
