@<TRIPOS>MOLECULE
JVI
   46    49     1     0     0
SMALL
No Charge or Current Charge


@<TRIPOS>ATOM
      1 C02         -6.3140    -9.1870    40.7430 c          1 JVI       0.553000
      2 C03         -6.6740    -7.7600    40.2440 c6         1 JVI       0.153800
      3 C05         -7.5410    -6.4760    38.2830 ca         1 JVI       0.439900
      4 C07         -7.9540    -4.2270    38.3020 ca         1 JVI       0.417900
      5 C09         -6.5160    -2.5890    39.6430 c3         1 JVI       0.242800
      6 C10         -6.5050    -1.0700    39.8760 c3         1 JVI      -0.113100
      7 C12         -9.3490    -5.5180    37.0530 ca         1 JVI       0.170300
      8 C13         -8.6440    -6.6400    37.4300 ca         1 JVI      -0.297300
      9 C14         -9.2360    -7.9090    36.8650 c5         1 JVI       0.000900
     10 C15        -10.6740    -7.3970    36.4740 c5         1 JVI      -0.081400
     11 C16        -10.5090    -5.8600    36.1600 c5         1 JVI      -0.137700
     12 C17         -6.1440    -8.5040    37.8850 ca         1 JVI       0.223000
     13 C18         -5.9420    -8.2290    36.5140 ca         1 JVI      -0.067000
     14 C19         -5.3290    -9.1720    35.6690 ca         1 JVI      -0.205000
     15 C20         -4.8960   -10.4100    36.1870 ca         1 JVI       0.156100
     16 C22         -4.0640   -11.1880    33.9980 c3         1 JVI       0.148900
     17 C23         -5.0700   -10.6850    37.5510 ca         1 JVI      -0.178000
     18 C24         -5.6800    -9.7420    38.3970 ca         1 JVI      -0.012000
     19 N04         -6.7730    -7.5590    38.7490 nh         1 JVI      -0.808100
     20 N06         -7.2010    -5.2560    38.7350 nb         1 JVI      -0.321000
     21 N08         -7.6200    -2.9580    38.7450 nu         1 JVI      -0.929100
     22 N11         -9.0170    -4.2880    37.4780 nb         1 JVI      -0.259000
     23 N25         -5.8250   -10.0330    39.7720 ns         1 JVI      -0.143000
     24 O01         -6.4490    -9.5390    41.9110 o          1 JVI      -0.532000
     25 O21         -4.2900   -11.3730    35.4070 os         1 JVI      -0.339100
     26 H1          -5.9080    -7.0930    40.6650 h1         1 JVI       0.090200
     27 H2          -7.6330    -7.5160    40.7250 h1         1 JVI       0.090200
     28 H3          -6.6270    -3.1010    40.6090 h1         1 JVI       0.048700
     29 H4          -5.5550    -2.8940    39.2070 h1         1 JVI       0.048700
     30 H5          -5.6810    -0.7980    40.5460 hc         1 JVI       0.043367
     31 H6          -6.3680    -0.5320    38.9300 hc         1 JVI       0.043367
     32 H7          -7.4430    -0.7390    40.3370 hc         1 JVI       0.043367
     33 H8          -9.2700    -8.7320    37.5890 hc         1 JVI       0.050200
     34 H9          -8.6870    -8.2600    35.9850 hc         1 JVI       0.050200
     35 H10        -11.3590    -7.5350    37.3190 hc         1 JVI       0.047700
     36 H11        -11.1000    -7.9540    35.6320 hc         1 JVI       0.047700
     37 H12        -10.2640    -5.6850    35.1070 hc         1 JVI       0.065700
     38 H13        -11.4150    -5.2890    36.3940 hc         1 JVI       0.065700
     39 H14         -6.2590    -7.2780    36.0970 ha         1 JVI       0.129000
     40 H15         -5.1990    -8.9220    34.6200 ha         1 JVI       0.123000
     41 H16         -3.5740   -12.0730    33.5730 h1         1 JVI       0.042367
     42 H17         -5.0120   -11.0360    33.4670 h1         1 JVI       0.042367
     43 H18         -3.4150   -10.3210    33.8170 h1         1 JVI       0.042367
     44 H19         -4.7250   -11.6350    37.9510 ha         1 JVI       0.134000
     45 H20         -8.2170    -2.2080    38.3950 hn         1 JVI       0.506000
     46 H21         -5.5620   -10.9620    40.0700 hn         1 JVI       0.161000
@<TRIPOS>BOND
     1     1     2 1   
     2     1    23 1   
     3     1    24 2   
     4     2    19 1   
     5     2    26 1   
     6     2    27 1   
     7     3     8 ar  
     8     3    19 1   
     9     3    20 ar  
    10     4    20 ar  
    11     4    21 1   
    12     4    22 ar  
    13     5     6 1   
    14     5    21 1   
    15     5    28 1   
    16     5    29 1   
    17     6    30 1   
    18     6    31 1   
    19     6    32 1   
    20     7     8 ar  
    21     7    11 1   
    22     7    22 ar  
    23     8     9 1   
    24     9    10 1   
    25     9    33 1   
    26     9    34 1   
    27    10    11 1   
    28    10    35 1   
    29    10    36 1   
    30    11    37 1   
    31    11    38 1   
    32    12    13 ar  
    33    12    18 ar  
    34    12    19 1   
    35    13    14 ar  
    36    13    39 1   
    37    14    15 ar  
    38    14    40 1   
    39    15    17 ar  
    40    15    25 1   
    41    16    25 1   
    42    16    41 1   
    43    16    42 1   
    44    16    43 1   
    45    17    18 ar  
    46    17    44 1   
    47    18    23 1   
    48    21    45 1   
    49    23    46 1   
@<TRIPOS>SUBSTRUCTURE
     1 JVI         1 TEMP              0 ****  ****    0 ROOT
