@<TRIPOS>MOLECULE
JVJ
   61    65     1     0     0
SMALL
No Charge or Current Charge


@<TRIPOS>ATOM
      1 N1           6.4800     3.8000     0.5870 n8         1 JVJ      -0.998200
      2 C2           5.3000     4.3970     1.2400 c3         1 JVJ       0.195100
      3 C3           4.0050     3.7630     0.7470 ca         1 JVJ      -0.079300
      4 C33          3.5110     2.5930     1.3510 ca         1 JVJ      -0.107000
      5 C32          2.3120     2.0120     0.9040 ca         1 JVJ      -0.085000
      6 C6           1.5700     2.5800    -0.1650 cp         1 JVJ      -0.137500
      7 C5           2.0830     3.7650    -0.7580 ca         1 JVJ      -0.085000
      8 C4           3.2820     4.3460    -0.3100 ca         1 JVJ      -0.107000
      9 C7           0.2870     1.9490    -0.6410 cp         1 JVJ       0.322500
     10 C20         -0.1250     0.5280    -0.3410 cq         1 JVJ       0.419500
     11 C21          0.8120    -0.6610    -0.3740 cq         1 JVJ      -0.152500
     12 C31          0.4710    -1.8830     0.2490 ca         1 JVJ      -0.073500
     13 C30          1.3490    -2.9800     0.2150 ca         1 JVJ      -0.113000
     14 C24          2.5920    -2.8930    -0.4440 ca         1 JVJ       0.018000
     15 C25          3.5280    -4.0250    -0.4920 cc         1 JVJ      -0.115000
     16 C29          3.2740    -5.2420     0.0920 cd         1 JVJ       0.138900
     17 O28          4.3160    -6.1220    -0.1040 os         1 JVJ      -0.234000
     18 C27          5.2380    -5.4090    -0.8360 cd         1 JVJ       0.117900
     19 C26          4.8000    -4.1400    -1.0910 cc         1 JVJ      -0.175000
     20 C23          2.9290    -1.6780    -1.0710 ca         1 JVJ      -0.113000
     21 C22          2.0550    -0.5790    -1.0400 ca         1 JVJ      -0.073500
     22 N19         -1.4440     0.2180    -0.2320 nb         1 JVJ      -0.739000
     23 C10         -2.3320     1.1440    -0.6800 ca         1 JVJ       0.546300
     24 C9          -1.9110     2.4050    -1.1910 ca         1 JVJ       0.276900
     25 N8          -0.6110     2.8090    -1.1940 nb         1 JVJ      -0.612000
     26 O11         -3.6810     0.8520    -0.6590 os         1 JVJ      -0.457300
     27 C12         -4.1630    -0.4080    -0.1530 c3         1 JVJ       0.172600
     28 C13         -5.7150    -0.4370    -0.2520 c6         1 JVJ      -0.066700
     29 C18         -6.2820    -1.8270     0.1490 c6         1 JVJ      -0.110400
     30 C17         -7.8280    -1.8450     0.0830 c6         1 JVJ       0.148800
     31 N16         -8.4070    -0.7700     0.9240 n7         1 JVJ      -0.844400
     32 C15         -7.9320     0.5790     0.5320 c6         1 JVJ       0.148800
     33 C14         -6.3890     0.6680     0.6110 c6         1 JVJ      -0.110400
     34 H1           6.4190     3.9770    -0.4230 hn         1 JVJ       0.396500
     35 H2           7.3180     4.3190     0.8750 hn         1 JVJ       0.396500
     36 H4           5.3900     4.2630     2.3270 h1         1 JVJ       0.035700
     37 H5           5.2880     5.4760     1.0310 h1         1 JVJ       0.035700
     38 H6           4.0570     2.1330     2.1720 ha         1 JVJ       0.122000
     39 H7           1.9540     1.1140     1.4040 ha         1 JVJ       0.121000
     40 H8           1.5530     4.2380    -1.5820 ha         1 JVJ       0.121000
     41 H9           3.6500     5.2520    -0.7870 ha         1 JVJ       0.122000
     42 H10         -0.4750    -1.9950     0.7750 ha         1 JVJ       0.122500
     43 H11          1.0450    -3.8960     0.7120 ha         1 JVJ       0.113000
     44 H12          2.4260    -5.6050     0.6570 h4         1 JVJ       0.054100
     45 H13          6.1570    -5.9110    -1.1120 h4         1 JVJ       0.053100
     46 H14          5.3270    -3.3710    -1.6450 ha         1 JVJ       0.143000
     47 H15          3.8760    -1.5760    -1.5920 ha         1 JVJ       0.113000
     48 H16          2.3580     0.3330    -1.5510 ha         1 JVJ       0.122500
     49 H17         -2.6410     3.1120    -1.5840 h4         1 JVJ       0.043100
     50 H18         -3.7540    -1.2410    -0.7410 h1         1 JVJ       0.050700
     51 H19         -3.8670    -0.5480     0.8960 h1         1 JVJ       0.050700
     52 H20         -5.9590    -0.2580    -1.3090 hc         1 JVJ       0.063700
     53 H21         -5.8790    -2.6040    -0.5150 hc         1 JVJ       0.047700
     54 H22         -5.9550    -2.0870     1.1660 hc         1 JVJ       0.047700
     55 H23         -8.1530    -1.7120    -0.9610 h1         1 JVJ       0.053700
     56 H24         -8.2010    -2.8240     0.4210 h1         1 JVJ       0.053700
     57 H25         -8.1240    -0.9380     1.8970 hn         1 JVJ       0.402000
     58 H27         -8.2610     0.8020    -0.4950 h1         1 JVJ       0.053700
     59 H28         -8.3800     1.3370     1.1930 h1         1 JVJ       0.053700
     60 H29         -6.0680     0.5750     1.6580 hc         1 JVJ       0.047700
     61 H30         -6.0670     1.6630     0.2740 hc         1 JVJ       0.047700
@<TRIPOS>BOND
     1     1     2 1   
     2     1    34 1   
     3     1    35 1   
     4     2     3 1   
     5     2    36 1   
     6     2    37 1   
     7     3     4 ar  
     8     3     8 ar  
     9     4     5 ar  
    10     4    38 1   
    11     5     6 ar  
    12     5    39 1   
    13     6     7 ar  
    14     6     9 1   
    15     7     8 ar  
    16     7    40 1   
    17     8    41 1   
    18     9    10 1   
    19     9    25 ar  
    20    10    11 1   
    21    10    22 2   
    22    11    12 1   
    23    11    21 2   
    24    12    13 ar  
    25    12    42 1   
    26    13    14 ar  
    27    13    43 1   
    28    14    15 1   
    29    14    20 ar  
    30    15    16 2   
    31    15    19 1   
    32    16    17 1   
    33    16    44 1   
    34    17    18 1   
    35    18    19 2   
    36    18    45 1   
    37    19    46 1   
    38    20    21 ar  
    39    20    47 1   
    40    21    48 1   
    41    22    23 ar  
    42    23    24 ar  
    43    23    26 1   
    44    24    25 ar  
    45    24    49 1   
    46    26    27 1   
    47    27    28 1   
    48    27    50 1   
    49    27    51 1   
    50    28    29 1   
    51    28    33 1   
    52    28    52 1   
    53    29    30 1   
    54    29    53 1   
    55    29    54 1   
    56    30    31 1   
    57    30    55 1   
    58    30    56 1   
    59    31    32 1   
    60    31    57 1   
    61    32    33 1   
    62    32    58 1   
    63    32    59 1   
    64    33    60 1   
    65    33    61 1   
@<TRIPOS>SUBSTRUCTURE
     1 JVJ         1 TEMP              0 ****  ****    0 ROOT
