@<TRIPOS>MOLECULE
JVJ
   61    65     1     0     0
SMALL
bcc


@<TRIPOS>ATOM
      1 N1           6.4290     3.0540     1.0930 n8         1 JVJ      -0.887800
      2 C2           5.5330     4.0460     0.5270 c3         1 JVJ       0.195100
      3 C3           4.1350     3.5150     0.3340 ca         1 JVJ      -0.079300
      4 C33          3.6150     2.5100     1.1460 ca         1 JVJ      -0.125000
      5 C32          2.3220     2.0460     0.9630 ca         1 JVJ      -0.103000
      6 C6           1.5080     2.5760    -0.0370 cp         1 JVJ      -0.137500
      7 C5           2.0190     3.5960    -0.8360 ca         1 JVJ      -0.103000
      8 C4           3.3170     4.0480    -0.6590 ca         1 JVJ      -0.125000
      9 C7           0.1210     2.1090    -0.2290 cp         1 JVJ       0.322500
     10 C20         -0.2610     0.7640    -0.2470 cq         1 JVJ       0.419500
     11 C21          0.6910    -0.3640    -0.2530 cq         1 JVJ      -0.152500
     12 C31          0.4340    -1.4960     0.5200 ca         1 JVJ      -0.091500
     13 C30          1.3030    -2.5720     0.5110 ca         1 JVJ      -0.131000
     14 C24          2.4460    -2.5680    -0.2930 ca         1 JVJ       0.018000
     15 C25          3.3660    -3.7030    -0.3140 cc         1 JVJ      -0.180300
     16 C29          3.2010    -4.9140     0.2860 cd         1 JVJ       0.248600
     17 O28          4.2580    -5.7100     0.0470 os         1 JVJ      -0.322800
     18 C27          5.1240    -5.0160    -0.7190 cd         1 JVJ       0.227600
     19 C26          4.6380    -3.7830    -0.9760 cc         1 JVJ      -0.258300
     20 C23          2.6830    -1.4420    -1.0850 ca         1 JVJ      -0.131000
     21 C22          1.8250    -0.3570    -1.0610 ca         1 JVJ      -0.091500
     22 N19         -1.5530     0.4260    -0.2900 nb         1 JVJ      -0.739000
     23 C10         -2.4510     1.3740    -0.3760 ca         1 JVJ       0.546300
     24 C9          -2.0720     2.7230    -0.4660 ca         1 JVJ       0.276900
     25 N8          -0.8090     3.0600    -0.3760 nb         1 JVJ      -0.612000
     26 O11         -3.7460     1.0890    -0.4010 os         1 JVJ      -0.434100
     27 C12         -4.1430    -0.2810    -0.3230 c3         1 JVJ       0.149400
     28 C13         -5.6570    -0.3490    -0.3680 c6         1 JVJ      -0.066700
     29 C18         -6.0940    -1.8140    -0.3870 c6         1 JVJ      -0.110400
     30 C17         -7.6160    -1.9320    -0.3630 c6         1 JVJ       0.148800
     31 N16         -8.2460    -1.2250     0.7400 n7         1 JVJ      -0.789200
     32 C15         -7.8350     0.1690     0.7840 c6         1 JVJ       0.148800
     33 C14         -6.3200     0.3730     0.8040 c6         1 JVJ      -0.110400
     34 H1           6.5970     2.3220     0.4140 hn         1 JVJ       0.341300
     35 H2           7.3280     3.4820     1.2710 hn         1 JVJ       0.341300
     36 H4           5.4900     4.8910     1.2220 h1         1 JVJ       0.035700
     37 H5           5.8790     4.4650    -0.4280 h1         1 JVJ       0.035700
     38 H6           4.2300     2.0860     1.9280 ha         1 JVJ       0.140000
     39 H7           1.9420     1.2670     1.6120 ha         1 JVJ       0.139000
     40 H8           1.4040     4.0260    -1.6170 ha         1 JVJ       0.139000
     41 H9           3.7030     4.8250    -1.3090 ha         1 JVJ       0.140000
     42 H10         -0.4480    -1.5270     1.1470 ha         1 JVJ       0.140500
     43 H11          1.0840    -3.4220     1.1440 ha         1 JVJ       0.131000
     44 H12          2.4100    -5.3340     0.8870 h4         1 JVJ       0.054100
     45 H13          6.0350    -5.5190    -1.0010 h4         1 JVJ       0.053100
     46 H14          5.1270    -3.0200    -1.5590 ha         1 JVJ       0.161000
     47 H15          3.5450    -1.4090    -1.7370 ha         1 JVJ       0.131000
     48 H16          2.0390     0.4960    -1.6920 ha         1 JVJ       0.140500
     49 H17         -2.8090     3.5060    -0.5980 h4         1 JVJ       0.043100
     50 H18         -3.7070    -0.8410    -1.1560 h1         1 JVJ       0.050700
     51 H19         -3.7680    -0.7260     0.6060 h1         1 JVJ       0.050700
     52 H20         -5.9970     0.1160    -1.3030 hc         1 JVJ       0.063700
     53 H21         -5.6990    -2.3190    -1.2730 hc         1 JVJ       0.047700
     54 H22         -5.6790    -2.3320     0.4860 hc         1 JVJ       0.047700
     55 H23         -8.0220    -1.5300    -1.2980 h1         1 JVJ       0.053700
     56 H24         -7.9110    -2.9820    -0.3220 h1         1 JVJ       0.053700
     57 H25         -7.9800    -1.6730     1.6100 hn         1 JVJ       0.346800
     58 H27         -8.2520     0.6710    -0.0960 h1         1 JVJ       0.053700
     59 H28         -8.2890     0.6420     1.6570 h1         1 JVJ       0.053700
     60 H29         -5.9130    -0.0170     1.7450 hc         1 JVJ       0.047700
     61 H30         -6.0970     1.4420     0.7820 hc         1 JVJ       0.047700
@<TRIPOS>BOND
     1     1     2 1   
     2     1    34 1   
     3     1    35 1   
     4     2     3 1   
     5     2    36 1   
     6     2    37 1   
     7     3     4 ar  
     8     3     8 ar  
     9     4     5 ar  
    10     4    38 1   
    11     5     6 ar  
    12     5    39 1   
    13     6     7 ar  
    14     6     9 1   
    15     7     8 ar  
    16     7    40 1   
    17     8    41 1   
    18     9    10 1   
    19     9    25 ar  
    20    10    11 1   
    21    10    22 2   
    22    11    12 1   
    23    11    21 2   
    24    12    13 ar  
    25    12    42 1   
    26    13    14 ar  
    27    13    43 1   
    28    14    15 1   
    29    14    20 ar  
    30    15    16 2   
    31    15    19 1   
    32    16    17 1   
    33    16    44 1   
    34    17    18 1   
    35    18    19 2   
    36    18    45 1   
    37    19    46 1   
    38    20    21 ar  
    39    20    47 1   
    40    21    48 1   
    41    22    23 ar  
    42    23    24 ar  
    43    23    26 1   
    44    24    25 ar  
    45    24    49 1   
    46    26    27 1   
    47    27    28 1   
    48    27    50 1   
    49    27    51 1   
    50    28    29 1   
    51    28    33 1   
    52    28    52 1   
    53    29    30 1   
    54    29    53 1   
    55    29    54 1   
    56    30    31 1   
    57    30    55 1   
    58    30    56 1   
    59    31    32 1   
    60    31    57 1   
    61    32    33 1   
    62    32    58 1   
    63    32    59 1   
    64    33    60 1   
    65    33    61 1   
@<TRIPOS>SUBSTRUCTURE
     1 JVJ         1 TEMP              0 ****  ****    0 ROOT
