@<TRIPOS>MOLECULE
JVK
   34    34     1     0     0
SMALL
bcc


@<TRIPOS>ATOM
      1 C           -5.2110    -0.6740    -2.9480 ca         1 JVK      -0.096000
      2 N           -7.7070    -2.6050    -5.2210 ns         1 JVK      -0.508900
      3 S           -4.7230    -2.0280    -5.3290 ss         1 JVK      -0.262000
      4 C1          -5.1480    -0.6270    -4.3380 ca         1 JVK       0.039900
      5 C2          -5.3830     0.5800    -4.9900 ca         1 JVK      -0.096000
      6 C3          -5.6750     1.7270    -4.2690 ca         1 JVK      -0.120000
      7 C4          -5.7480     1.6590    -2.8880 ca         1 JVK       0.028400
      8 C5          -5.5230     0.4640    -2.2210 ca         1 JVK      -0.120000
      9 C6          -5.5420    -3.3800    -4.4500 c3         1 JVK      -0.096300
     10 C7          -7.0470    -3.2390    -4.2510 c          1 JVK       0.659100
     11 C8          -9.1460    -2.4980    -5.3180 c3         1 JVK      -0.041300
     12 C9          -9.6100    -2.8340    -6.7590 c          1 JVK       0.926600
     13 C10         -9.6550    -1.1050    -4.9000 c3         1 JVK      -0.054700
     14 C11         -9.2830    -0.7700    -3.4600 c3         1 JVK      -0.080600
     15 C12         -9.1750    -0.0020    -5.8390 c3         1 JVK      -0.080600
     16 O           -7.5620    -3.7370    -3.2590 o          1 JVK      -0.648100
     17 CL          -6.1260     3.0840    -1.9800 cl         1 JVK      -0.131400
     18 O1         -10.8360    -2.9960    -6.8960 o          1 JVK      -0.828800
     19 O2          -8.7330    -2.8830    -7.6430 o          1 JVK      -0.828800
     20 H1          -5.0180    -1.5930    -2.4110 ha         1 JVK       0.146500
     21 H2          -7.1990    -2.3500    -6.0570 hn         1 JVK       0.339500
     22 H3          -5.3500     0.6300    -6.0710 ha         1 JVK       0.146500
     23 H4          -5.8580     2.6590    -4.7870 ha         1 JVK       0.141500
     24 H5          -5.5770     0.4170    -1.1420 ha         1 JVK       0.141500
     25 H6          -5.3480    -4.2640    -5.0640 h1         1 JVK       0.083700
     26 H7          -5.0730    -3.5610    -3.4850 h1         1 JVK       0.083700
     27 H8          -9.5830    -3.2320    -4.6370 h1         1 JVK       0.064700
     28 H9         -10.7460    -1.1560    -4.9620 hc         1 JVK       0.061700
     29 H10         -9.6110    -1.5460    -2.7660 hc         1 JVK       0.021700
     30 H11         -8.2040    -0.6510    -3.3440 hc         1 JVK       0.021700
     31 H12         -9.7480     0.1690    -3.1540 hc         1 JVK       0.021700
     32 H13         -9.5490     0.9690    -5.5070 hc         1 JVK       0.021700
     33 H14         -8.0850     0.0620    -5.8530 hc         1 JVK       0.021700
     34 H15         -9.5180    -0.1470    -6.8640 hc         1 JVK       0.021700
@<TRIPOS>BOND
     1     1     4 ar  
     2     1     8 ar  
     3     1    20 1   
     4     2    10 1   
     5     2    11 1   
     6     2    21 1   
     7     3     4 1   
     8     3     9 1   
     9     4     5 ar  
    10     5     6 ar  
    11     5    22 1   
    12     6     7 ar  
    13     6    23 1   
    14     7     8 ar  
    15     7    17 1   
    16     8    24 1   
    17     9    10 1   
    18     9    25 1   
    19     9    26 1   
    20    10    16 2   
    21    11    12 1   
    22    11    13 1   
    23    11    27 1   
    24    12    18 1   
    25    12    19 1   
    26    13    14 1   
    27    13    15 1   
    28    13    28 1   
    29    14    29 1   
    30    14    30 1   
    31    14    31 1   
    32    15    32 1   
    33    15    33 1   
    34    15    34 1   
@<TRIPOS>SUBSTRUCTURE
     1 JVK         1 TEMP              0 ****  ****    0 ROOT
