@<TRIPOS>MOLECULE
JVK
   34    34     1     0     0
SMALL
No Charge or Current Charge


@<TRIPOS>ATOM
      1 C           -5.1690    -0.7120    -2.8780 ca         1 JVK      -0.078000
      2 N           -7.7760    -2.8170    -5.3440 ns         1 JVK      -0.441900
      3 S           -4.7600    -1.8340    -5.4100 ss         1 JVK      -0.183000
      4 C1          -5.1620    -0.5100    -4.2730 ca         1 JVK      -0.087000
      5 C2          -5.4780     0.7580    -4.7940 ca         1 JVK      -0.078000
      6 C3          -5.8230     1.8120    -3.9310 ca         1 JVK      -0.102000
      7 C4          -5.8430     1.6020    -2.5430 ca         1 JVK       0.120000
      8 C5          -5.5120     0.3440    -2.0150 ca         1 JVK      -0.102000
      9 C6          -5.4880    -3.3550    -4.6300 c3         1 JVK      -0.048400
     10 C7          -6.9730    -3.1860    -4.2860 c          1 JVK       0.592100
     11 C8          -9.2320    -2.5310    -5.2750 c3         1 JVK      -0.041300
     12 C9          -9.9690    -3.1060    -6.5280 c          1 JVK       0.716000
     13 C10         -9.5380    -1.0150    -5.0630 c3         1 JVK      -0.054700
     14 C11         -9.1230    -0.5170    -3.6590 c3         1 JVK      -0.080600
     15 C12         -8.9450    -0.1100    -6.1710 c3         1 JVK      -0.080600
     16 O           -7.4110    -3.3750    -3.1580 o          1 JVK      -0.648100
     17 Cl          -6.2800     2.9200    -1.4620 cl         1 JVK      -0.223000
     18 O1         -11.1090    -3.5230    -6.3790 o          1 JVK      -0.723500
     19 O2          -9.3470    -3.2260    -7.5770 o          1 JVK      -0.723500
     20 H1          -4.9100    -1.6800    -2.4560 ha         1 JVK       0.128500
     21 H2          -7.3200    -2.7160    -6.2440 hn         1 JVK       0.339500
     22 H3          -5.4680     0.9220    -5.8690 ha         1 JVK       0.128500
     23 H4          -6.0770     2.7880    -4.3360 ha         1 JVK       0.123500
     24 H5          -5.5220     0.1860    -0.9400 ha         1 JVK       0.123500
     25 H6          -5.3930    -4.1940    -5.3290 h1         1 JVK       0.083700
     26 H7          -4.9410    -3.6010    -3.7130 h1         1 JVK       0.083700
     27 H8          -9.6430    -3.0790    -4.4180 h1         1 JVK       0.064700
     28 H9         -10.6290    -0.9050    -5.1150 hc         1 JVK       0.061700
     29 H10         -9.5720    -1.1400    -2.8770 hc         1 JVK       0.021700
     30 H11         -8.0350    -0.5420    -3.5380 hc         1 JVK       0.021700
     31 H12         -9.4570     0.5160    -3.5010 hc         1 JVK       0.021700
     32 H13         -9.2190     0.9380    -6.0010 hc         1 JVK       0.021700
     33 H14         -7.8510    -0.1750    -6.1920 hc         1 JVK       0.021700
     34 H15         -9.3250    -0.3970    -7.1580 hc         1 JVK       0.021700
@<TRIPOS>BOND
     1     1     4 ar  
     2     1     8 ar  
     3     1    20 1   
     4     2    10 1   
     5     2    11 1   
     6     2    21 1   
     7     3     4 1   
     8     3     9 1   
     9     4     5 ar  
    10     5     6 ar  
    11     5    22 1   
    12     6     7 ar  
    13     6    23 1   
    14     7     8 ar  
    15     7    17 1   
    16     8    24 1   
    17     9    10 1   
    18     9    25 1   
    19     9    26 1   
    20    10    16 2   
    21    11    12 1   
    22    11    13 1   
    23    11    27 1   
    24    12    18 1   
    25    12    19 1   
    26    13    14 1   
    27    13    15 1   
    28    13    28 1   
    29    14    29 1   
    30    14    30 1   
    31    14    31 1   
    32    15    32 1   
    33    15    33 1   
    34    15    34 1   
@<TRIPOS>SUBSTRUCTURE
     1 JVK         1 TEMP              0 ****  ****    0 ROOT
