@<TRIPOS>MOLECULE
JVL
   98   101     1     0     0
SMALL
abcg2


@<TRIPOS>ATOM
      1 N1           5.5790   -11.1120     2.8400 n2         1 JVL      -0.915100
      2 C7          -1.6020   -14.4580     3.2990 c          1 JVL       0.574100
      3 C8          -2.3880   -13.3390     2.6000 c3         1 JVL       0.034700
      4 N2           6.7950   -11.1390     4.8070 nv         1 JVL      -1.033200
      5 C9          -3.2200   -13.8830     1.4410 c3         1 JVL      -0.077400
      6 C1           3.6320   -12.8830     4.1550 c3         1 JVL       0.161500
      7 C5           0.5530   -14.5370     5.9230 c3         1 JVL      -0.098400
      8 C6          -0.7400   -15.2240     5.4840 c3         1 JVL       0.101000
      9 N3          -1.5730   -14.3780     4.6390 ns         1 JVL      -0.499900
     10 C4           1.4580   -14.1290     4.7630 c3         1 JVL      -0.073400
     11 C3           2.7500   -13.4870     5.2570 c3         1 JVL      -0.077400
     12 C2           5.6800   -11.4850     4.0740 c2         1 JVL       0.799100
     13 N4          -6.6830   -10.2260     1.4580 n8         1 JVL      -1.007200
     14 N            4.7520   -12.2050     4.7770 nu         1 JVL      -0.988400
     15 C            4.0690   -13.9390     3.1290 c          1 JVL       0.567100
     16 O            3.3380   -14.2500     2.1910 o          1 JVL      -0.587100
     17 C10         -3.9810   -12.8140     0.6580 c3         1 JVL      -0.072400
     18 C11         -4.9410   -11.9760     1.5000 c3         1 JVL      -0.085400
     19 C12         -5.8950   -11.1590     0.6400 c3         1 JVL       0.150800
     20 C13         -1.2440   -11.1540     2.7360 c          1 JVL       0.591100
     21 C14         -0.1260   -10.2770     2.1620 c3         1 JVL       0.028700
     22 C15         -0.6060    -8.8230     1.9580 c3         1 JVL      -0.006200
     23 C16         -1.5250    -8.6580     0.7890 cc         1 JVL      -0.167400
     24 C17         -2.8970    -8.7090     0.7960 cd         1 JVL      -0.130100
     25 C18         -2.3270    -8.3990    -1.3540 ca         1 JVL      -0.052200
     26 C19         -1.1340    -8.4570    -0.5830 ca         1 JVL      -0.101800
     27 C20          0.1000    -8.3180    -1.2350 ca         1 JVL      -0.076000
     28 C21          0.1200    -8.1410    -2.6080 ca         1 JVL      -0.140000
     29 C22         -1.0740    -8.0940    -3.3520 ca         1 JVL      -0.093000
     30 C23         -2.3100    -8.2180    -2.7370 ca         1 JVL      -0.126000
     31 C24          1.7860   -11.0140     0.7910 c          1 JVL       0.607100
     32 C25          2.1720   -11.5500    -0.5850 c3         1 JVL      -0.108100
     33 C26          3.6110   -11.2960    -0.9330 ca         1 JVL      -0.073300
     34 C27          4.6060   -12.1360    -0.4360 ca         1 JVL      -0.073000
     35 C28          5.9510   -11.8860    -0.6830 ca         1 JVL      -0.096300
     36 C29          7.0350   -12.7850    -0.1250 c3         1 JVL       0.146300
     37 C30          6.4040   -14.8290     1.0810 c          1 JVL       0.578100
     38 C31          5.8510   -15.4290     2.3760 c3         1 JVL       0.018000
     39 C32          6.3000   -10.7810    -1.4600 ca         1 JVL      -0.097000
     40 C33          5.3160    -9.9480    -1.9780 ca         1 JVL      -0.109000
     41 C34          3.9730   -10.1990    -1.7110 ca         1 JVL      -0.102000
     42 N5          -1.4230   -12.3480     2.1470 ns         1 JVL      -0.493900
     43 N6          -3.3790    -8.5540    -0.4840 na         1 JVL      -0.232700
     44 N7           0.4570   -10.8250     0.9560 ns         1 JVL      -0.515900
     45 N8           6.6190   -13.5060     1.0630 ns         1 JVL      -0.495900
     46 N9           5.2840   -14.4920     3.3150 ns         1 JVL      -0.509900
     47 O2           2.6010   -10.8120     1.6860 o          1 JVL      -0.611100
     48 H1           4.6550   -11.2880     2.4520 hn         1 JVL       0.425400
     49 H2          -3.0260   -12.8360     3.3230 h1         1 JVL       0.084700
     50 H3           7.1050   -11.7950     5.5100 hn         1 JVL       0.462500
     51 H4           7.5460   -10.7580     4.2510 hn         1 JVL       0.462500
     52 H5          -3.9260   -14.6090     1.8540 hc         1 JVL       0.061200
     53 H6          -2.5580   -14.4340     0.7680 hc         1 JVL       0.061200
     54 H7           3.0340   -12.1700     3.5840 h1         1 JVL       0.111700
     55 H8           1.0870   -15.2260     6.5860 hc         1 JVL       0.042200
     56 H9           0.3060   -13.6540     6.5220 hc         1 JVL       0.042200
     57 H10         -1.3250   -15.5110     6.3590 h1         1 JVL       0.061200
     58 H11         -0.5170   -16.1260     4.9170 h1         1 JVL       0.061200
     59 H12         -2.0490   -13.6030     5.0760 hn         1 JVL       0.320500
     60 H13          0.9310   -13.4230     4.1160 hc         1 JVL       0.062200
     61 H14          1.6820   -15.0050     4.1500 hc         1 JVL       0.062200
     62 H15          3.3380   -14.2160     5.8240 hc         1 JVL       0.045200
     63 H16          2.5070   -12.6710     5.9440 hc         1 JVL       0.045200
     64 H17         -7.3190    -9.7010     0.8650 hn         1 JVL       0.394500
     65 H18         -7.2690   -10.7510     2.1000 hn         1 JVL       0.394500
     66 H20          4.9540   -12.4280     5.7390 hn         1 JVL       0.480000
     67 H21         -4.5420   -13.3180    -0.1350 hc         1 JVL       0.042200
     68 H22         -3.2700   -12.1490     0.1570 hc         1 JVL       0.042200
     69 H23         -4.3810   -11.2960     2.1470 hc         1 JVL       0.051700
     70 H24         -5.5230   -12.6310     2.1590 hc         1 JVL       0.051700
     71 H25         -6.5220   -11.8470     0.0560 h1         1 JVL       0.023700
     72 H26         -5.3210   -10.5720    -0.0810 h1         1 JVL       0.023700
     73 H27          0.6630   -10.2770     2.9160 h1         1 JVL       0.103700
     74 H28          0.2830    -8.2050     1.8210 hc         1 JVL       0.069700
     75 H29         -1.0910    -8.5020     2.8790 hc         1 JVL       0.069700
     76 H30         -3.5760    -8.8480     1.6220 h4         1 JVL       0.234000
     77 H31          1.0260    -8.3550    -0.6750 ha         1 JVL       0.118000
     78 H32          1.0690    -8.0390    -3.1200 ha         1 JVL       0.112000
     79 H33         -1.0260    -7.9570    -4.4250 ha         1 JVL       0.112000
     80 H34         -3.2290    -8.1790    -3.3070 ha         1 JVL       0.113000
     81 H35          1.5070   -11.1190    -1.3350 hc         1 JVL       0.071700
     82 H36          1.9700   -12.6250    -0.5590 hc         1 JVL       0.071700
     83 H37          4.3180   -12.9800     0.1770 ha         1 JVL       0.130000
     84 H38          7.3330   -13.5260    -0.8670 h1         1 JVL       0.066200
     85 H39          7.9160   -12.1840     0.1090 h1         1 JVL       0.066200
     86 H40          5.1020   -16.1620     2.0790 h1         1 JVL       0.082700
     87 H41          6.6670   -15.9620     2.8640 h1         1 JVL       0.082700
     88 H42          7.3460   -10.5690    -1.6530 ha         1 JVL       0.109000
     89 H43          5.5950    -9.0920    -2.5810 ha         1 JVL       0.111000
     90 H44          3.2070    -9.5390    -2.0990 ha         1 JVL       0.106000
     91 H45         -0.7950   -12.6070     1.4010 hn         1 JVL       0.335500
     92 H46         -4.3530    -8.5270    -0.7370 hn         1 JVL       0.352000
     93 H47         -0.1220   -10.8480     0.1300 hn         1 JVL       0.322500
     94 H48          6.3360   -12.9360     1.8550 hn         1 JVL       0.334500
     95 H49          5.8390   -14.1890     4.1000 hn         1 JVL       0.315500
     96 O4          -1.0150   -15.3240     2.6510 o          1 JVL      -0.600100
     97 O1           6.6500   -15.5830     0.1380 o          1 JVL      -0.613100
     98 O3          -1.9040   -10.7600     3.6970 o          1 JVL      -0.625100
@<TRIPOS>BOND
     1     1    12 2   
     2     1    48 1   
     3     2     3 1   
     4     2     9 1   
     5     2    96 2   
     6     3     5 1   
     7     3    42 1   
     8     3    49 1   
     9     4    12 1   
    10     4    50 1   
    11     4    51 1   
    12     5    17 1   
    13     5    52 1   
    14     5    53 1   
    15     6    11 1   
    16     6    14 1   
    17     6    15 1   
    18     6    54 1   
    19     7     8 1   
    20     7    10 1   
    21     7    55 1   
    22     7    56 1   
    23     8     9 1   
    24     8    57 1   
    25     8    58 1   
    26     9    59 1   
    27    10    11 1   
    28    10    60 1   
    29    10    61 1   
    30    11    62 1   
    31    11    63 1   
    32    12    14 1   
    33    13    19 1   
    34    13    64 1   
    35    13    65 1   
    36    14    66 1   
    37    15    16 2   
    38    15    46 1   
    39    17    18 1   
    40    17    67 1   
    41    17    68 1   
    42    18    19 1   
    43    18    69 1   
    44    18    70 1   
    45    19    71 1   
    46    19    72 1   
    47    20    21 1   
    48    20    42 1   
    49    20    98 2   
    50    21    22 1   
    51    21    44 1   
    52    21    73 1   
    53    22    23 1   
    54    22    74 1   
    55    22    75 1   
    56    23    24 2   
    57    23    26 1   
    58    24    43 1   
    59    24    76 1   
    60    25    26 ar  
    61    25    30 ar  
    62    25    43 1   
    63    26    27 ar  
    64    27    28 ar  
    65    27    77 1   
    66    28    29 ar  
    67    28    78 1   
    68    29    30 ar  
    69    29    79 1   
    70    30    80 1   
    71    31    32 1   
    72    31    44 1   
    73    31    47 2   
    74    32    33 1   
    75    32    81 1   
    76    32    82 1   
    77    33    34 ar  
    78    33    41 ar  
    79    34    35 ar  
    80    34    83 1   
    81    35    36 1   
    82    35    39 ar  
    83    36    45 1   
    84    36    84 1   
    85    36    85 1   
    86    37    38 1   
    87    37    45 1   
    88    37    97 2   
    89    38    46 1   
    90    38    86 1   
    91    38    87 1   
    92    39    40 ar  
    93    39    88 1   
    94    40    41 ar  
    95    40    89 1   
    96    41    90 1   
    97    42    91 1   
    98    43    92 1   
    99    44    93 1   
   100    45    94 1   
   101    46    95 1   
@<TRIPOS>SUBSTRUCTURE
     1 JVL         1 TEMP              0 ****  ****    0 ROOT
