@<TRIPOS>MOLECULE
JVL
   98   101     1     0     0
SMALL
No Charge or Current Charge


@<TRIPOS>ATOM
      1 N1           5.8410   -11.4420     3.5800 n2         1 JVL      -0.915100
      2 C7          -1.4860   -13.8220     2.5880 c          1 JVL       0.574100
      3 C8          -2.3480   -12.5340     2.4750 c3         1 JVL       0.034700
      4 N2           6.5110   -11.8750     5.6490 nv         1 JVL      -1.033200
      5 C9          -3.6950   -12.8350     1.7650 c3         1 JVL      -0.077400
      6 C1           3.8380   -13.4330     4.0930 c3         1 JVL       0.161500
      7 C5           0.4320   -15.3140     4.9460 c3         1 JVL      -0.098400
      8 C6          -0.8420   -15.6960     4.1540 c3         1 JVL       0.101000
      9 N3          -1.6380   -14.5260     3.7650 ns         1 JVL      -0.499900
     10 C4           1.4940   -14.5550     4.1150 c3         1 JVL      -0.073400
     11 C3           2.7710   -14.2020     4.9170 c3         1 JVL      -0.077400
     12 C2           5.6000   -11.7600     4.7480 c2         1 JVL       0.799100
     13 N4          -6.9200    -9.9390     4.4430 n8         1 JVL      -1.007200
     14 N            4.7930   -12.7620     5.0450 nu         1 JVL      -0.988400
     15 C            4.5490   -14.3620     3.0370 c          1 JVL       0.567100
     16 O            4.0120   -14.7580     2.0120 o          1 JVL      -0.587100
     17 C10         -4.7230   -11.6770     1.7660 c3         1 JVL      -0.072400
     18 C11         -5.3030   -11.3410     3.1600 c3         1 JVL      -0.085400
     19 C12         -6.3600   -10.2190     3.1090 c3         1 JVL       0.150800
     20 C13         -1.4330   -10.1870     2.1160 c          1 JVL       0.591100
     21 C14         -0.3600    -9.3690     1.3390 c3         1 JVL       0.028700
     22 C15         -0.9950    -8.2280     0.5100 c3         1 JVL      -0.006200
     23 C16         -1.7820    -8.7230    -0.6780 cc         1 JVL      -0.167400
     24 C17         -3.1520    -8.9640    -0.7380 cd         1 JVL      -0.130100
     25 C18         -2.3010    -9.5550    -2.7180 ca         1 JVL      -0.052200
     26 C19         -1.2600    -9.0900    -1.9660 ca         1 JVL      -0.101800
     27 C20          0.0450    -9.0120    -2.4760 ca         1 JVL      -0.076000
     28 C21          0.2670    -9.4590    -3.7960 ca         1 JVL      -0.140000
     29 C22         -0.8080    -9.9550    -4.5710 ca         1 JVL      -0.093000
     30 C23         -2.1110   -10.0020    -4.0340 ca         1 JVL      -0.126000
     31 C24          1.5660   -10.9680     0.9310 c          1 JVL       0.607100
     32 C25          2.3620   -11.6920    -0.1590 c3         1 JVL      -0.108100
     33 C26          3.7790   -11.1350    -0.2650 ca         1 JVL      -0.073300
     34 C27          4.8880   -11.9790    -0.0670 ca         1 JVL      -0.073000
     35 C28          6.2010   -11.4680    -0.1040 ca         1 JVL      -0.096300
     36 C29          7.3950   -12.3840     0.1490 c3         1 JVL       0.146300
     37 C30          7.2890   -14.6690     1.2200 c          1 JVL       0.578100
     38 C31          6.7630   -15.4590     2.4470 c3         1 JVL       0.018000
     39 C32          6.3990   -10.1010    -0.3740 ca         1 JVL      -0.097000
     40 C33          5.2980    -9.2570    -0.5970 ca         1 JVL      -0.109000
     41 C34          3.9920    -9.7700    -0.5390 ca         1 JVL      -0.102000
     42 N5          -1.5690   -11.5100     1.7470 ns         1 JVL      -0.493900
     43 N6          -3.4850    -9.4960    -2.0080 na         1 JVL      -0.232700
     44 N7           0.4950   -10.2280     0.4820 ns         1 JVL      -0.515900
     45 N8           7.1440   -13.2970     1.2670 ns         1 JVL      -0.495900
     46 N9           5.8660   -14.6610     3.3170 ns         1 JVL      -0.509900
     47 O2           1.8390   -11.0510     2.1190 o          1 JVL      -0.611100
     48 H1           4.9970   -11.6770     3.0550 hn         1 JVL       0.425400
     49 H2          -2.5380   -12.1850     3.4970 h1         1 JVL       0.084700
     50 H3           6.4950   -12.8160     6.0000 hn         1 JVL       0.462500
     51 H4           7.4010   -11.6020     5.2620 hn         1 JVL       0.462500
     52 H5          -4.1590   -13.7120     2.2340 hc         1 JVL       0.061200
     53 H6          -3.4870   -13.1200     0.7250 hc         1 JVL       0.061200
     54 H7           3.3090   -12.6660     3.5110 h1         1 JVL       0.111700
     55 H8           0.8830   -16.2350     5.3350 hc         1 JVL       0.042200
     56 H9           0.1460   -14.7120     5.8170 hc         1 JVL       0.042200
     57 H10         -1.4700   -16.3430     4.7800 h1         1 JVL       0.061200
     58 H11         -0.5660   -16.2710     3.2590 h1         1 JVL       0.061200
     59 H12         -2.3060   -14.1610     4.4340 hn         1 JVL       0.320500
     60 H13          1.0610   -13.6240     3.7330 hc         1 JVL       0.062200
     61 H14          1.7560   -15.1670     3.2450 hc         1 JVL       0.062200
     62 H15          3.2180   -15.1160     5.3270 hc         1 JVL       0.045200
     63 H16          2.4660   -13.5860     5.7720 hc         1 JVL       0.045200
     64 H17         -7.6600    -9.2320     4.3530 hn         1 JVL       0.394500
     65 H18         -7.4230   -10.7710     4.7750 hn         1 JVL       0.394500
     66 H20          4.4740   -12.6960     6.0070 hn         1 JVL       0.480000
     67 H21         -5.5500   -11.9520     1.1000 hc         1 JVL       0.042200
     68 H22         -4.2640   -10.7800     1.3340 hc         1 JVL       0.042200
     69 H23         -4.4940   -11.0340     3.8320 hc         1 JVL       0.051700
     70 H24         -5.7540   -12.2450     3.5880 hc         1 JVL       0.051700
     71 H25         -7.1810   -10.5130     2.4400 h1         1 JVL       0.023700
     72 H26         -5.9050    -9.2990     2.7180 h1         1 JVL       0.023700
     73 H27          0.2770    -8.9140     2.1090 h1         1 JVL       0.103700
     74 H28         -0.2000    -7.5560     0.1660 hc         1 JVL       0.069700
     75 H29         -1.6390    -7.6220     1.1610 hc         1 JVL       0.069700
     76 H30         -3.9050    -8.8110     0.0310 h4         1 JVL       0.234000
     77 H31          0.8630    -8.6140    -1.8810 ha         1 JVL       0.118000
     78 H32          1.2670    -9.4160    -4.2210 ha         1 JVL       0.112000
     79 H33         -0.6290   -10.2950    -5.5890 ha         1 JVL       0.112000
     80 H34         -2.9450   -10.3720    -4.6260 ha         1 JVL       0.113000
     81 H35          1.8540   -11.5920    -1.1250 hc         1 JVL       0.071700
     82 H36          2.3940   -12.7550     0.1070 hc         1 JVL       0.071700
     83 H37          4.7270   -13.0370     0.1260 ha         1 JVL       0.130000
     84 H38          7.6060   -12.9540    -0.7660 h1         1 JVL       0.066200
     85 H39          8.2840   -11.7850     0.3840 h1         1 JVL       0.066200
     86 H40          6.2300   -16.3450     2.0820 h1         1 JVL       0.082700
     87 H41          7.6320   -15.7830     3.0320 h1         1 JVL       0.082700
     88 H42          7.4060    -9.6900    -0.4120 ha         1 JVL       0.109000
     89 H43          5.4570    -8.2010    -0.8060 ha         1 JVL       0.111000
     90 H44          3.1470    -9.1040    -0.7000 ha         1 JVL       0.106000
     91 H45         -0.9720   -11.8180     0.9890 hn         1 JVL       0.335500
     92 H46         -4.4070    -9.7710    -2.3330 hn         1 JVL       0.352000
     93 H47          0.3200   -10.2260    -0.5180 hn         1 JVL       0.322500
     94 H48          6.7490   -12.9090     2.1190 hn         1 JVL       0.334500
     95 H49          6.2240   -14.2510     4.1740 hn         1 JVL       0.315500
     96 O4          -0.7130   -14.1810     1.7080 o          1 JVL      -0.600100
     97 O1           7.7760   -15.2330     0.2500 o          1 JVL      -0.613100
     98 O3          -2.0770    -9.7070     3.0390 o          1 JVL      -0.625100
@<TRIPOS>BOND
     1     1    12 2   
     2     1    48 1   
     3     2     3 1   
     4     2     9 1   
     5     2    96 2   
     6     3     5 1   
     7     3    42 1   
     8     3    49 1   
     9     4    12 1   
    10     4    50 1   
    11     4    51 1   
    12     5    17 1   
    13     5    52 1   
    14     5    53 1   
    15     6    11 1   
    16     6    14 1   
    17     6    15 1   
    18     6    54 1   
    19     7     8 1   
    20     7    10 1   
    21     7    55 1   
    22     7    56 1   
    23     8     9 1   
    24     8    57 1   
    25     8    58 1   
    26     9    59 1   
    27    10    11 1   
    28    10    60 1   
    29    10    61 1   
    30    11    62 1   
    31    11    63 1   
    32    12    14 1   
    33    13    19 1   
    34    13    64 1   
    35    13    65 1   
    36    14    66 1   
    37    15    16 2   
    38    15    46 1   
    39    17    18 1   
    40    17    67 1   
    41    17    68 1   
    42    18    19 1   
    43    18    69 1   
    44    18    70 1   
    45    19    71 1   
    46    19    72 1   
    47    20    21 1   
    48    20    42 1   
    49    20    98 2   
    50    21    22 1   
    51    21    44 1   
    52    21    73 1   
    53    22    23 1   
    54    22    74 1   
    55    22    75 1   
    56    23    24 2   
    57    23    26 1   
    58    24    43 1   
    59    24    76 1   
    60    25    26 ar  
    61    25    30 ar  
    62    25    43 1   
    63    26    27 ar  
    64    27    28 ar  
    65    27    77 1   
    66    28    29 ar  
    67    28    78 1   
    68    29    30 ar  
    69    29    79 1   
    70    30    80 1   
    71    31    32 1   
    72    31    44 1   
    73    31    47 2   
    74    32    33 1   
    75    32    81 1   
    76    32    82 1   
    77    33    34 ar  
    78    33    41 ar  
    79    34    35 ar  
    80    34    83 1   
    81    35    36 1   
    82    35    39 ar  
    83    36    45 1   
    84    36    84 1   
    85    36    85 1   
    86    37    38 1   
    87    37    45 1   
    88    37    97 2   
    89    38    46 1   
    90    38    86 1   
    91    38    87 1   
    92    39    40 ar  
    93    39    88 1   
    94    40    41 ar  
    95    40    89 1   
    96    41    90 1   
    97    42    91 1   
    98    43    92 1   
    99    44    93 1   
   100    45    94 1   
   101    46    95 1   
@<TRIPOS>SUBSTRUCTURE
     1 JVL         1 TEMP              0 ****  ****    0 ROOT
