@<TRIPOS>MOLECULE
JVM
   61    65     1     0     0
SMALL
No Charge or Current Charge


@<TRIPOS>ATOM
      1 N1          -5.3780     5.1280    -2.0250 n8         1 JVM      -0.998200
      2 C2          -5.5410     4.1710    -0.9150 c3         1 JVM       0.196100
      3 C3          -4.2060     3.5770    -0.4850 ca         1 JVM      -0.081300
      4 C8          -3.4810     4.1440     0.5790 ca         1 JVM      -0.104500
      5 C7          -2.2530     3.5900     0.9800 ca         1 JVM      -0.086500
      6 C6          -1.7120     2.4480     0.3310 cp         1 JVM      -0.134500
      7 C5          -2.4550     1.8950    -0.7450 ca         1 JVM      -0.086500
      8 C4          -3.6830     2.4500    -1.1450 ca         1 JVM      -0.104500
      9 C9          -0.3980     1.8440     0.7560 cp         1 JVM       0.319500
     10 N22          0.4820     2.7130     1.3250 nb         1 JVM      -0.612000
     11 C21          1.7940     2.3530     1.2830 ca         1 JVM       0.275900
     12 C12          2.2460     1.1250     0.7170 ca         1 JVM       0.546300
     13 O13          3.6020     0.8790     0.6610 os         1 JVM      -0.457300
     14 C14          4.1150    -0.3450     0.1000 c3         1 JVM       0.172600
     15 C15          5.6690    -0.3270     0.1700 c6         1 JVM      -0.066700
     16 C20          6.2730    -1.6810    -0.2940 c6         1 JVM      -0.110900
     17 C19          7.8200    -1.6510    -0.2560 c6         1 JVM       0.148800
     18 N18          8.3470    -0.5270    -1.0670 n7         1 JVM      -0.844400
     19 C17          7.8370     0.7900    -0.6170 c6         1 JVM       0.148800
     20 C16          6.2900     0.8310    -0.6640 c6         1 JVM      -0.110900
     21 N11          1.3790     0.1880     0.2520 nb         1 JVM      -0.741000
     22 C10          0.0540     0.4490     0.3960 cq         1 JVM       0.423500
     23 C23         -0.8440    -0.7710     0.4020 cq         1 JVM      -0.159500
     24 C28         -0.4750    -1.9560    -0.2750 ca         1 JVM      -0.070500
     25 C27         -1.3180    -3.0800    -0.2660 ca         1 JVM      -0.119500
     26 C26         -2.5480    -3.0610     0.4180 ca         1 JVM       0.034000
     27 C25         -2.9130    -1.8820     1.1000 ca         1 JVM      -0.119500
     28 C24         -2.0740    -0.7540     1.0950 ca         1 JVM      -0.070500
     29 C29         -3.4090    -4.2520     0.4090 cc         1 JVM      -0.159000
     30 C33         -4.6150    -4.3120     1.0470 cd         1 JVM      -0.154000
     31 N32         -5.0890    -5.6060     0.7820 na         1 JVM      -0.000200
     32 N31         -4.2060    -6.3500    -0.0050 nd         1 JVM      -0.521800
     33 C30         -3.2170    -5.5020    -0.2040 cc         1 JVM       0.255900
     34 H1          -6.2840     5.5730    -2.2160 hn         1 JVM       0.397000
     35 H2          -4.7880     5.9040    -1.7030 hn         1 JVM       0.397000
     36 H4          -6.0070     4.6910    -0.0650 h1         1 JVM       0.033700
     37 H5          -6.2200     3.3690    -1.2350 h1         1 JVM       0.033700
     38 H6          -3.8710     5.0160     1.1000 ha         1 JVM       0.120000
     39 H7          -1.7220     4.0490     1.8110 ha         1 JVM       0.121500
     40 H8          -2.0770     1.0320    -1.2880 ha         1 JVM       0.121500
     41 H9          -4.2290     2.0050    -1.9740 ha         1 JVM       0.120000
     42 H10          2.5080     3.0680     1.6880 h4         1 JVM       0.043100
     43 H11          3.7440    -1.2120     0.6640 h1         1 JVM       0.051200
     44 H12          3.8040    -0.4560    -0.9480 h1         1 JVM       0.051200
     45 H13          5.9280    -0.1780     1.2280 hc         1 JVM       0.062700
     46 H14          5.9080    -2.4950     0.3480 hc         1 JVM       0.047700
     47 H15          5.9350    -1.9140    -1.3130 hc         1 JVM       0.047700
     48 H16          8.1600    -1.5450     0.7860 h1         1 JVM       0.053450
     49 H17          8.2170    -2.6030    -0.6370 h1         1 JVM       0.053450
     50 H18          8.0510    -0.6690    -2.0410 hn         1 JVM       0.402000
     51 H20          8.1780     0.9860     0.4120 h1         1 JVM       0.053450
     52 H21          8.2460     1.5860    -1.2570 h1         1 JVM       0.053450
     53 H22          5.9520     0.7660    -1.7070 hc         1 JVM       0.047700
     54 H23          5.9430     1.8020    -0.2840 hc         1 JVM       0.047700
     55 H24          0.4620    -2.0170    -0.8230 ha         1 JVM       0.122000
     56 H25         -1.0030    -3.9710    -0.8020 ha         1 JVM       0.111500
     57 H26         -3.8500    -1.8240     1.6460 ha         1 JVM       0.111500
     58 H27         -2.3950     0.1270     1.6460 ha         1 JVM       0.122000
     59 H28         -5.1670    -3.5930     1.6410 h4         1 JVM       0.156000
     60 H29         -5.9720    -6.0000     1.1080 hn         1 JVM       0.373000
     61 H30         -2.3720    -5.8230    -0.7990 h4         1 JVM       0.039100
@<TRIPOS>BOND
     1     1     2 1   
     2     1    34 1   
     3     1    35 1   
     4     2     3 1   
     5     2    36 1   
     6     2    37 1   
     7     3     4 ar  
     8     3     8 ar  
     9     4     5 ar  
    10     4    38 1   
    11     5     6 ar  
    12     5    39 1   
    13     6     7 ar  
    14     6     9 1   
    15     7     8 ar  
    16     7    40 1   
    17     8    41 1   
    18     9    10 ar  
    19     9    22 2   
    20    10    11 ar  
    21    11    12 ar  
    22    11    42 1   
    23    12    13 1   
    24    12    21 ar  
    25    13    14 1   
    26    14    15 1   
    27    14    43 1   
    28    14    44 1   
    29    15    16 1   
    30    15    20 1   
    31    15    45 1   
    32    16    17 1   
    33    16    46 1   
    34    16    47 1   
    35    17    18 1   
    36    17    48 1   
    37    17    49 1   
    38    18    19 1   
    39    18    50 1   
    40    19    20 1   
    41    19    51 1   
    42    19    52 1   
    43    20    53 1   
    44    20    54 1   
    45    21    22 1   
    46    22    23 1   
    47    23    24 1   
    48    23    28 2   
    49    24    25 ar  
    50    24    55 1   
    51    25    26 ar  
    52    25    56 1   
    53    26    27 ar  
    54    26    29 1   
    55    27    28 ar  
    56    27    57 1   
    57    28    58 1   
    58    29    30 2   
    59    29    33 1   
    60    30    31 1   
    61    30    59 1   
    62    31    32 1   
    63    31    60 1   
    64    32    33 2   
    65    33    61 1   
@<TRIPOS>SUBSTRUCTURE
     1 JVM         1 TEMP              0 ****  ****    0 ROOT
