@<TRIPOS>MOLECULE
JVM
   61    65     1     0     0
SMALL
abcg2


@<TRIPOS>ATOM
      1 N1          -6.0520     4.1170    -1.6470 n8         1 JVM      -0.998200
      2 C2          -5.6980     3.8470    -0.2630 c3         1 JVM       0.196100
      3 C3          -4.2680     3.3910    -0.1300 ca         1 JVM      -0.081300
      4 C8          -3.4650     3.8640     0.9020 ca         1 JVM      -0.104500
      5 C7          -2.1570     3.4260     1.0510 ca         1 JVM      -0.086500
      6 C6          -1.6210     2.4880     0.1730 cp         1 JVM      -0.134500
      7 C5          -2.4180     2.0240    -0.8730 ca         1 JVM      -0.086500
      8 C4          -3.7190     2.4730    -1.0250 ca         1 JVM      -0.104500
      9 C9          -0.2200     2.0460     0.3270 cp         1 JVM       0.319500
     10 N22          0.6870     3.0110     0.5180 nb         1 JVM      -0.612000
     11 C21          1.9580     2.7030     0.5790 ca         1 JVM       0.275900
     12 C12          2.3700     1.3700     0.4130 ca         1 JVM       0.546300
     13 O13          3.6720     1.1160     0.4150 os         1 JVM      -0.457300
     14 C14          4.1000    -0.2410     0.2790 c3         1 JVM       0.172600
     15 C15          5.6140    -0.2760     0.3310 c6         1 JVM      -0.066700
     16 C20          6.0860    -1.7300     0.2960 c6         1 JVM      -0.110900
     17 C19          7.6110    -1.8100     0.2810 c6         1 JVM       0.148800
     18 N18          8.2330    -1.0480    -0.7890 n7         1 JVM      -0.844400
     19 C17          7.7870     0.3360    -0.7850 c6         1 JVM       0.148800
     20 C16          6.2680     0.5040    -0.8080 c6         1 JVM      -0.110900
     21 N11          1.4950     0.4060     0.2830 nb         1 JVM      -0.741000
     22 C10          0.1940     0.7120     0.2670 cq         1 JVM       0.423500
     23 C23         -0.7250    -0.4410     0.2160 cq         1 JVM      -0.159500
     24 C28         -0.4170    -1.5390    -0.5860 ca         1 JVM      -0.070500
     25 C27         -1.2450    -2.6470    -0.6210 ca         1 JVM      -0.119500
     26 C26         -2.4000    -2.7110     0.1620 ca         1 JVM       0.034000
     27 C25         -2.6910    -1.6160     0.9800 ca         1 JVM      -0.119500
     28 C24         -1.8750    -0.5010     1.0030 ca         1 JVM      -0.070500
     29 C29         -3.2650    -3.8860     0.1300 cc         1 JVM      -0.159000
     30 C33         -4.4550    -4.0880     0.8070 cd         1 JVM      -0.154000
     31 N32         -4.8850    -5.3100     0.4690 na         1 JVM      -0.000200
     32 N31         -4.0760    -5.9360    -0.3770 nd         1 JVM      -0.521800
     33 C30         -3.0910    -5.0870    -0.5930 cc         1 JVM       0.255900
     34 H1          -7.0430     4.3160    -1.7050 hn         1 JVM       0.397000
     35 H2          -5.5780     4.9550    -1.9580 hn         1 JVM       0.397000
     36 H4          -5.8590     4.6970     0.4140 h1         1 JVM       0.033700
     37 H5          -6.3530     3.0490     0.0980 h1         1 JVM       0.033700
     38 H6          -3.8650     4.5890     1.6010 ha         1 JVM       0.120000
     39 H7          -1.5510     3.8130     1.8610 ha         1 JVM       0.121500
     40 H8          -2.0160     1.3120    -1.5830 ha         1 JVM       0.121500
     41 H9          -4.3160     2.1130    -1.8530 ha         1 JVM       0.120000
     42 H10          2.6770     3.4960     0.7480 h4         1 JVM       0.043100
     43 H11          3.6710    -0.8450     1.0840 h1         1 JVM       0.051200
     44 H12          3.7400    -0.6530    -0.6690 h1         1 JVM       0.051200
     45 H13          5.9370     0.1590     1.2860 hc         1 JVM       0.062700
     46 H14          5.6960    -2.2790     1.1590 hc         1 JVM       0.047700
     47 H15          5.6900    -2.2240    -0.6000 hc         1 JVM       0.047700
     48 H16          7.9990    -1.4340     1.2340 h1         1 JVM       0.053450
     49 H17          7.9310    -2.8520     0.2040 h1         1 JVM       0.053450
     50 H18          7.9850    -1.4700    -1.6770 hn         1 JVM       0.402000
     51 H20          8.1870     0.8160     0.1150 h1         1 JVM       0.053450
     52 H21          8.2340     0.8500    -1.6380 h1         1 JVM       0.053450
     53 H22          5.8760     0.1400    -1.7660 hc         1 JVM       0.047700
     54 H23          6.0190     1.5670    -0.7490 hc         1 JVM       0.047700
     55 H24          0.4760    -1.5220    -1.1970 ha         1 JVM       0.122000
     56 H25         -0.9800    -3.4720    -1.2710 ha         1 JVM       0.111500
     57 H26         -3.5650    -1.6310     1.6190 ha         1 JVM       0.111500
     58 H27         -2.1300     0.3220     1.6580 ha         1 JVM       0.122000
     59 H28         -5.0110    -3.4650     1.4880 h4         1 JVM       0.156000
     60 H29         -5.7240    -5.7640     0.7930 hn         1 JVM       0.373000
     61 H30         -2.2840    -5.3590    -1.2560 h4         1 JVM       0.039100
@<TRIPOS>BOND
     1     1     2 1   
     2     1    34 1   
     3     1    35 1   
     4     2     3 1   
     5     2    36 1   
     6     2    37 1   
     7     3     4 ar  
     8     3     8 ar  
     9     4     5 ar  
    10     4    38 1   
    11     5     6 ar  
    12     5    39 1   
    13     6     7 ar  
    14     6     9 1   
    15     7     8 ar  
    16     7    40 1   
    17     8    41 1   
    18     9    10 ar  
    19     9    22 2   
    20    10    11 ar  
    21    11    12 ar  
    22    11    42 1   
    23    12    13 1   
    24    12    21 ar  
    25    13    14 1   
    26    14    15 1   
    27    14    43 1   
    28    14    44 1   
    29    15    16 1   
    30    15    20 1   
    31    15    45 1   
    32    16    17 1   
    33    16    46 1   
    34    16    47 1   
    35    17    18 1   
    36    17    48 1   
    37    17    49 1   
    38    18    19 1   
    39    18    50 1   
    40    19    20 1   
    41    19    51 1   
    42    19    52 1   
    43    20    53 1   
    44    20    54 1   
    45    21    22 1   
    46    22    23 1   
    47    23    24 1   
    48    23    28 2   
    49    24    25 ar  
    50    24    55 1   
    51    25    26 ar  
    52    25    56 1   
    53    26    27 ar  
    54    26    29 1   
    55    27    28 ar  
    56    27    57 1   
    57    28    58 1   
    58    29    30 2   
    59    29    33 1   
    60    30    31 1   
    61    30    59 1   
    62    31    32 1   
    63    31    60 1   
    64    32    33 2   
    65    33    61 1   
@<TRIPOS>SUBSTRUCTURE
     1 JVM         1 TEMP              0 ****  ****    0 ROOT
