@<TRIPOS>MOLECULE
JVN
   27    29     1     0     0
SMALL
abcg2


@<TRIPOS>ATOM
      1 C1           2.9560    -0.2050    -0.0070 ca         1 JVN       0.111000
      2 C2           2.8580     1.1330    -0.3410 ca         1 JVN      -0.097000
      3 C3           1.6260     1.7580    -0.2660 ca         1 JVN      -0.167000
      4 C8          -0.6270    -1.0850     0.8350 c6         1 JVN       0.219600
      5 C10         -1.6140    -0.1510     1.5190 c6         1 JVN      -0.107400
      6 C14         -2.5570     0.3320    -0.7430 c6         1 JVN       0.108300
      7 C15         -1.9420     0.9530     0.5230 c6         1 JVN       0.236500
      8 O17         -3.8320    -0.1470    -0.3740 oh         1 JVN      -0.710000
      9 C4           0.4830     1.0520     0.1340 ca         1 JVN       0.318000
     10 C5           0.6080    -0.3100     0.4550 ca         1 JVN      -0.173300
     11 C6           1.8500    -0.9280     0.3850 ca         1 JVN      -0.082000
     12 F7           4.1590    -0.8150    -0.0700 f          1 JVN      -0.183000
     13 N9          -0.7310     1.6850     0.2390 nu         1 JVN      -0.965200
     14 O12         -1.2390    -1.6910    -0.2980 os         1 JVN      -0.437000
     15 H1           3.7350     1.6880    -0.6500 ha         1 JVN       0.129000
     16 H2           1.5460     2.8080    -0.5180 ha         1 JVN       0.115000
     17 H3          -0.3550    -1.9130     1.4920 h1         1 JVN       0.085700
     18 H4          -2.5150    -0.6890     1.8130 hc         1 JVN       0.072700
     19 H5          -1.1730     0.2700     2.4250 hc         1 JVN       0.072700
     20 H8          -2.6360     1.1090    -1.5170 h1         1 JVN       0.032700
     21 H9          -2.6630     1.6530     0.9520 h1         1 JVN       0.077700
     22 H10         -4.2570    -0.5150    -1.1550 ho         1 JVN       0.507000
     23 H11          1.9460    -1.9780     0.6380 ha         1 JVN       0.132000
     24 H12         -0.8330     2.5510    -0.2650 hn         1 JVN       0.478000
     25 C13         -1.6520    -0.7690    -1.2850 c6         1 JVN       0.121600
     26 H6          -2.1820    -1.3470    -2.0470 h1         1 JVN       0.051700
     27 H7          -0.7890    -0.3120    -1.7880 h1         1 JVN       0.051700
@<TRIPOS>BOND
     1     1     2 ar  
     2     1    11 ar  
     3     1    12 1   
     4     2     3 ar  
     5     2    15 1   
     6     3     9 ar  
     7     3    16 1   
     8     4     5 1   
     9     4    10 1   
    10     4    14 1   
    11     4    17 1   
    12     5     7 1   
    13     5    18 1   
    14     5    19 1   
    15     6     7 1   
    16     6     8 1   
    17     6    20 1   
    18     6    25 1   
    19     7    13 1   
    20     7    21 1   
    21     8    22 1   
    22     9    10 ar  
    23     9    13 1   
    24    10    11 ar  
    25    11    23 1   
    26    13    24 1   
    27    14    25 1   
    28    25    26 1   
    29    25    27 1   
@<TRIPOS>SUBSTRUCTURE
     1 JVN         1 TEMP              0 ****  ****    0 ROOT
