@<TRIPOS>MOLECULE
JVN
   27    29     1     0     0
SMALL
No Charge or Current Charge


@<TRIPOS>ATOM
      1 C1           2.9980    -0.2340    -0.0690 ca         1 JVN       0.111000
      2 C2           2.8950     1.1330    -0.3740 ca         1 JVN      -0.097000
      3 C3           1.6510     1.7830    -0.2670 ca         1 JVN      -0.167000
      4 C8          -0.6310    -1.0800     0.9060 c6         1 JVN       0.219600
      5 C10         -1.6490    -0.1240     1.5620 c6         1 JVN      -0.107400
      6 C14         -2.6020     0.3260    -0.7660 c6         1 JVN       0.108300
      7 C15         -1.9860     0.9760     0.5300 c6         1 JVN       0.236500
      8 O17         -3.9180    -0.2040    -0.4830 oh         1 JVN      -0.710000
      9 C4           0.5170     1.0660     0.1470 ca         1 JVN       0.318000
     10 C5           0.6220    -0.3090     0.4580 ca         1 JVN      -0.173300
     11 C6           1.8680    -0.9590     0.3450 ca         1 JVN      -0.082000
     12 F7           4.1920    -0.8570    -0.1770 f          1 JVN      -0.183000
     13 N9          -0.7250     1.7040     0.2390 nu         1 JVN      -0.965200
     14 O12         -1.2580    -1.7150    -0.2410 os         1 JVN      -0.437000
     15 H1           3.7750     1.6850    -0.6950 ha         1 JVN       0.129000
     16 H2           1.5700     2.8390    -0.5070 ha         1 JVN       0.115000
     17 H3          -0.3470    -1.8600     1.6280 h1         1 JVN       0.085700
     18 H4          -2.5520    -0.6720     1.8610 hc         1 JVN       0.072700
     19 H5          -1.2270     0.3190     2.4740 hc         1 JVN       0.072700
     20 H8          -2.6850     1.1030    -1.5390 h1         1 JVN       0.032700
     21 H9          -2.7300     1.6670     0.9570 h1         1 JVN       0.077700
     22 H10         -4.2540    -0.6100    -1.3160 ho         1 JVN       0.507000
     23 H11          1.9600    -2.0170     0.5740 ha         1 JVN       0.132000
     24 H12         -0.7630     2.6910    -0.0200 hn         1 JVN       0.478000
     25 C13         -1.6490    -0.7970    -1.2980 c6         1 JVN       0.121600
     26 H6          -2.1500    -1.3670    -2.0930 h1         1 JVN       0.051700
     27 H7          -0.7520    -0.3490    -1.7500 h1         1 JVN       0.051700
@<TRIPOS>BOND
     1     1     2 ar  
     2     1    11 ar  
     3     1    12 1   
     4     2     3 ar  
     5     2    15 1   
     6     3     9 ar  
     7     3    16 1   
     8     4     5 1   
     9     4    10 1   
    10     4    14 1   
    11     4    17 1   
    12     5     7 1   
    13     5    18 1   
    14     5    19 1   
    15     6     7 1   
    16     6     8 1   
    17     6    20 1   
    18     6    25 1   
    19     7    13 1   
    20     7    21 1   
    21     8    22 1   
    22     9    10 ar  
    23     9    13 1   
    24    10    11 ar  
    25    11    23 1   
    26    13    24 1   
    27    14    25 1   
    28    25    26 1   
    29    25    27 1   
@<TRIPOS>SUBSTRUCTURE
     1 JVN         1 TEMP              0 ****  ****    0 ROOT
