@<TRIPOS>MOLECULE
JVP
   52    55     1     0     0
SMALL
No Charge or Current Charge


@<TRIPOS>ATOM
      1 C4           1.7860    -1.2910     1.5380 ca         1 JVP      -0.162000
      2 C7          -1.2970     0.4950     0.2310 cc         1 JVP       0.374500
      3 C6           0.1020     0.0440     0.3560 ca         1 JVP      -0.166500
      4 C9          -3.1280     1.5010    -0.5120 cd         1 JVP       0.314000
      5 C13         -5.2620     0.0290     1.8080 c6         1 JVP      -0.081400
      6 C8          -1.7860     1.6520    -0.4320 cc         1 JVP      -0.352600
      7 C18         -7.0490    -2.3420    -0.6560 c1         1 JVP       0.422800
      8 C26          5.9590    -1.6210    -0.7060 ca         1 JVP      -0.062000
      9 C1           1.0540     0.2860    -0.6620 ca         1 JVP      -0.055500
     10 C2           2.3650    -0.2100    -0.5550 ca         1 JVP      -0.162000
     11 C3           2.7390    -0.9820     0.5590 ca         1 JVP       0.139100
     12 C5           0.4740    -0.7970     1.4310 ca         1 JVP      -0.055500
     13 N10         -3.4100     0.2930     0.1430 na         1 JVP       0.081800
     14 N11         -2.2620    -0.3280     0.6070 nd         1 JVP      -0.529800
     15 C12         -4.7610    -0.2820     0.3710 c6         1 JVP       0.071300
     16 C14         -6.6250    -0.6600     2.0770 c6         1 JVP      -0.112400
     17 C15         -6.5620    -2.1730     1.7370 c6         1 JVP       0.211800
     18 N16         -6.1490    -2.3780     0.3230 n3         1 JVP      -0.592200
     19 C17         -4.7830    -1.8180     0.1170 c6         1 JVP       0.195800
     20 N19         -7.8130    -2.2680    -1.5270 n1         1 JVP      -0.498000
     21 N20         -4.0770     2.3490    -1.0140 nv         1 JVP      -1.067000
     22 O22         -1.5530     3.7270    -1.5750 o          1 JVP      -0.662100
     23 N23          0.1750     3.0430    -0.3920 nt         1 JVP      -0.598000
     24 O24          4.0130    -1.4910     0.6870 os         1 JVP      -0.234200
     25 C25          5.1200    -0.8760     0.1420 ca         1 JVP       0.036100
     26 C27          7.0990    -1.0180    -1.2720 ca         1 JVP      -0.162000
     27 C28          7.3990     0.3230    -0.9830 ca         1 JVP       0.202000
     28 C29          6.5750     1.0690    -0.1290 ca         1 JVP      -0.194000
     29 C30          5.4370     0.4710     0.4370 ca         1 JVP       0.190000
     30 F31          4.6620     1.1970     1.2750 f          1 JVP      -0.157000
     31 F32          8.4940     0.8970    -1.5270 f          1 JVP      -0.166000
     32 HC4          2.0630    -1.9150     2.3840 ha         1 JVP       0.130500
     33 H13A        -4.5230    -0.3220     2.5430 hc         1 JVP       0.068700
     34 H13B        -5.3520     1.1150     1.9510 hc         1 JVP       0.068700
     35 HC26         5.7240    -2.6590    -0.9270 ha         1 JVP       0.139000
     36 HC1          0.7750     0.8260    -1.5640 ha         1 JVP       0.127000
     37 HC2          3.0770    -0.0090    -1.3510 ha         1 JVP       0.130500
     38 HC5         -0.2490    -1.0510     2.2040 ha         1 JVP       0.127000
     39 HC12        -5.4570     0.1760    -0.3440 h1         1 JVP       0.066700
     40 H14B        -6.9110    -0.5280     3.1300 hc         1 JVP       0.057700
     41 H14A        -7.4120    -0.1800     1.4790 hc         1 JVP       0.057700
     42 H15A        -5.8440    -2.6580     2.4150 h1         1 JVP       0.068200
     43 H15B        -7.5400    -2.6380     1.9320 h1         1 JVP       0.068200
     44 H17B        -4.4240    -2.0270    -0.9020 h1         1 JVP       0.077700
     45 H17A        -4.0730    -2.3040     0.8030 h1         1 JVP       0.077700
     46 H20A        -5.0280     2.0310    -1.1830 hn         1 JVP       0.487500
     47 H20B        -3.7560     3.1650    -1.5360 hn         1 JVP       0.487500
     48 H23B         0.5840     2.3580     0.2250 hn         1 JVP       0.317000
     49 H23A         0.6800     3.8760    -0.6480 hn         1 JVP       0.317000
     50 HC27         7.7480    -1.5880    -1.9320 ha         1 JVP       0.143000
     51 HC29         6.8170     2.1030     0.0970 ha         1 JVP       0.154000
     52 C21         -1.0670     2.8600    -0.8690 c          1 JVP       0.665700
@<TRIPOS>BOND
     1     1    11 ar  
     2     1    12 ar  
     3     1    32 1   
     4     2     3 1   
     5     2     6 1   
     6     2    14 2   
     7     3     9 ar  
     8     3    12 ar  
     9     4     6 2   
    10     4    13 1   
    11     4    21 1   
    12     5    15 1   
    13     5    16 1   
    14     5    33 1   
    15     5    34 1   
    16     6    52 1   
    17     7    18 1   
    18     7    20 3   
    19     8    25 ar  
    20     8    26 ar  
    21     8    35 1   
    22     9    10 ar  
    23     9    36 1   
    24    10    11 ar  
    25    10    37 1   
    26    11    24 1   
    27    12    38 1   
    28    13    14 1   
    29    13    15 1   
    30    15    19 1   
    31    15    39 1   
    32    16    17 1   
    33    16    40 1   
    34    16    41 1   
    35    17    18 1   
    36    17    42 1   
    37    17    43 1   
    38    18    19 1   
    39    19    44 1   
    40    19    45 1   
    41    21    46 1   
    42    21    47 1   
    43    22    52 2   
    44    23    48 1   
    45    23    49 1   
    46    23    52 1   
    47    24    25 1   
    48    25    29 ar  
    49    26    27 ar  
    50    26    50 1   
    51    27    28 ar  
    52    27    31 1   
    53    28    29 ar  
    54    28    51 1   
    55    29    30 1   
@<TRIPOS>SUBSTRUCTURE
     1 JVP         1 TEMP              0 ****  ****    0 ROOT
