@<TRIPOS>MOLECULE
JVP
   52    55     1     0     0
SMALL
abcg2


@<TRIPOS>ATOM
      1 C4           1.8020    -0.2930     2.1300 ca         1 JVP      -0.162000
      2 C7          -1.3120     0.7440     0.2910 cc         1 JVP       0.374500
      3 C6           0.0920     0.4060     0.5690 ca         1 JVP      -0.166500
      4 C9          -3.2390     1.6220    -0.3820 cd         1 JVP       0.314000
      5 C13         -4.7730    -0.7550     1.9380 c6         1 JVP      -0.081400
      6 C8          -1.8620     1.8690    -0.3820 cc         1 JVP      -0.352600
      7 C18         -7.1090    -1.7590    -0.9110 c1         1 JVP       0.422800
      8 C26          5.4110    -1.8020    -0.1440 ca         1 JVP      -0.062000
      9 C1           1.0390     0.3570    -0.4510 ca         1 JVP      -0.055500
     10 C2           2.3540    -0.0060    -0.1990 ca         1 JVP      -0.162000
     11 C3           2.7330    -0.3270     1.0980 ca         1 JVP       0.139100
     12 C5           0.4950     0.0680     1.8620 ca         1 JVP      -0.055500
     13 N10         -3.4180     0.4630     0.2770 na         1 JVP       0.081800
     14 N11         -2.2500    -0.0890     0.6700 nd         1 JVP      -0.529800
     15 C12         -4.6580    -0.2460     0.5030 c6         1 JVP       0.071300
     16 C14         -6.0730    -1.5340     2.1220 c6         1 JVP      -0.112400
     17 C15         -6.1840    -2.6570     1.1040 c6         1 JVP       0.211800
     18 N16         -6.0280    -2.1370    -0.2590 n3         1 JVP      -0.592200
     19 C17         -4.7910    -1.4010    -0.4960 c6         1 JVP       0.195800
     20 N19         -8.0570    -1.4670    -1.5110 n1         1 JVP      -0.498000
     21 N20         -4.2590     2.3890    -0.8420 nv         1 JVP      -1.067000
     22 O22         -1.9430     3.8450    -1.6450 o          1 JVP      -0.662100
     23 N23          0.0060     3.3630    -0.6340 nt         1 JVP      -0.598000
     24 O24          3.9970    -0.7080     1.4440 os         1 JVP      -0.234200
     25 C25          4.9870    -0.6560     0.5070 ca         1 JVP       0.036100
     26 C27          6.4580    -1.7510    -1.0540 ca         1 JVP      -0.162000
     27 C28          7.0600    -0.5330    -1.3000 ca         1 JVP       0.202000
     28 C29          6.6600     0.6340    -0.6720 ca         1 JVP      -0.194000
     29 C30          5.6200     0.5490     0.2280 ca         1 JVP       0.190000
     30 F31          5.1980     1.6510     0.8510 f          1 JVP      -0.157000
     31 F32          8.0670    -0.4680    -2.1780 f          1 JVP      -0.166000
     32 HC4          2.1060    -0.5440     3.1380 ha         1 JVP       0.130500
     33 H13A        -3.9220    -1.4020     2.1650 hc         1 JVP       0.068700
     34 H13B        -4.7320     0.0890     2.6280 hc         1 JVP       0.068700
     35 HC26         4.9230    -2.7440     0.0680 ha         1 JVP       0.139000
     36 HC1          0.7500     0.5920    -1.4670 ha         1 JVP       0.127000
     37 HC2          3.0550    -0.0440    -1.0210 ha         1 JVP       0.130500
     38 HC5         -0.2230     0.0970     2.6710 ha         1 JVP       0.127000
     39 HC12        -5.4700     0.4660     0.3340 h1         1 JVP       0.066700
     40 H14B        -6.1130    -1.9560     3.1280 hc         1 JVP       0.057700
     41 H14A        -6.9330    -0.8650     2.0240 hc         1 JVP       0.057700
     42 H15A        -5.3950    -3.3960     1.2570 h1         1 JVP       0.068200
     43 H15B        -7.1380    -3.1760     1.1740 h1         1 JVP       0.068200
     44 H17B        -4.7740    -1.0420    -1.5240 h1         1 JVP       0.077700
     45 H17A        -3.9570    -2.0940    -0.3710 h1         1 JVP       0.077700
     46 H20A        -5.0950     1.9250    -1.1600 hn         1 JVP       0.487500
     47 H20B        -3.9540     3.1290    -1.4570 hn         1 JVP       0.487500
     48 H23B         0.5330     2.8270     0.0330 hn         1 JVP       0.317000
     49 H23A         0.4230     4.2120    -0.9780 hn         1 JVP       0.317000
     50 HC27         6.7930    -2.6450    -1.5620 ha         1 JVP       0.143000
     51 HC29         7.1440     1.5800    -0.8760 ha         1 JVP       0.154000
     52 C21         -1.2750     3.0890    -0.9350 c          1 JVP       0.665700
@<TRIPOS>BOND
     1     1    11 ar  
     2     1    12 ar  
     3     1    32 1   
     4     2     3 1   
     5     2     6 1   
     6     2    14 2   
     7     3     9 ar  
     8     3    12 ar  
     9     4     6 2   
    10     4    13 1   
    11     4    21 1   
    12     5    15 1   
    13     5    16 1   
    14     5    33 1   
    15     5    34 1   
    16     6    52 1   
    17     7    18 1   
    18     7    20 3   
    19     8    25 ar  
    20     8    26 ar  
    21     8    35 1   
    22     9    10 ar  
    23     9    36 1   
    24    10    11 ar  
    25    10    37 1   
    26    11    24 1   
    27    12    38 1   
    28    13    14 1   
    29    13    15 1   
    30    15    19 1   
    31    15    39 1   
    32    16    17 1   
    33    16    40 1   
    34    16    41 1   
    35    17    18 1   
    36    17    42 1   
    37    17    43 1   
    38    18    19 1   
    39    19    44 1   
    40    19    45 1   
    41    21    46 1   
    42    21    47 1   
    43    22    52 2   
    44    23    48 1   
    45    23    49 1   
    46    23    52 1   
    47    24    25 1   
    48    25    29 ar  
    49    26    27 ar  
    50    26    50 1   
    51    27    28 ar  
    52    27    31 1   
    53    28    29 ar  
    54    28    51 1   
    55    29    30 1   
@<TRIPOS>SUBSTRUCTURE
     1 JVP         1 TEMP              0 ****  ****    0 ROOT
