@<TRIPOS>MOLECULE
JVQ
   34    36     1     0     0
SMALL
bcc


@<TRIPOS>ATOM
      1 C1           3.2560    -2.8950    -0.3200 c3         1 JVQ      -0.110100
      2 C2           2.2830    -1.9970     0.4260 c3         1 JVQ       0.096000
      3 C4           1.2770    -0.4270    -1.1990 c3         1 JVQ       0.158300
      4 C5          -0.1080    -0.1040    -0.7150 ca         1 JVQ      -0.121300
      5 C6          -1.0460    -1.1390    -0.5660 ca         1 JVQ      -0.085000
      6 C7          -2.3120    -0.8140    -0.1550 ca         1 JVQ       0.029100
      7 C11         -2.6670     0.4970     0.1050 ca         1 JVQ       0.083100
      8 C12         -1.7730     1.5290    -0.0190 ca         1 JVQ      -0.171000
      9 C15          1.5830     2.4230     0.2700 c3         1 JVQ       0.195800
     10 C16          2.8830     1.7200    -0.1460 c3         1 JVQ      -0.163400
     11 C17          3.0330     0.3080     0.3810 c          1 JVQ       0.706500
     12 N3           2.2300    -0.6500    -0.1230 n          1 JVQ      -0.472800
     13 O8          -3.3940    -1.6190     0.0210 os         1 JVQ      -0.318900
     14 C9          -4.3910    -0.8020     0.6170 c5         1 JVQ       0.326200
     15 O10         -3.9730     0.5490     0.4600 os         1 JVQ      -0.319900
     16 C13         -0.4660     1.2200    -0.4410 ca         1 JVQ       0.134600
     17 N14          0.4510     2.2650    -0.6390 nu         1 JVQ      -0.729600
     18 H1           3.2360    -3.9020     0.0970 hc         1 JVQ       0.040367
     19 H2           3.0010    -2.9700    -1.3780 hc         1 JVQ       0.040367
     20 H3           4.2750    -2.5180    -0.2410 hc         1 JVQ       0.040367
     21 H4           1.2760    -2.4160     0.3860 h1         1 JVQ       0.054700
     22 H5           2.5500    -1.9410     1.4800 h1         1 JVQ       0.054700
     23 H6           1.2540    -1.3320    -1.8090 h1         1 JVQ       0.062700
     24 H7           1.6330     0.3670    -1.8540 h1         1 JVQ       0.062700
     25 H8          -0.7780    -2.1620    -0.8010 ha         1 JVQ       0.151000
     26 H9          -2.0580     2.5510     0.1960 ha         1 JVQ       0.150000
     27 H10          1.3240     2.1420     1.2980 h1         1 JVQ       0.043700
     28 H11          1.7990     3.4900     0.2930 h1         1 JVQ       0.043700
     29 H12          2.9950     1.7740    -1.2310 hc         1 JVQ       0.074200
     30 H13          3.7140     2.2810     0.2810 hc         1 JVQ       0.074200
     31 H14         -5.3450    -0.9540     0.1110 h2         1 JVQ       0.065200
     32 H15         -4.4810    -1.0390     1.6830 h2         1 JVQ       0.065200
     33 H16         -0.0390     3.1450    -0.7080 hn         1 JVQ       0.383800
     34 O18          3.8410     0.0660     1.2710 o          1 JVQ      -0.646500
@<TRIPOS>BOND
     1     1     2 1   
     2     1    18 1   
     3     1    19 1   
     4     1    20 1   
     5     2    12 1   
     6     2    21 1   
     7     2    22 1   
     8     3     4 1   
     9     3    12 1   
    10     3    23 1   
    11     3    24 1   
    12     4     5 ar  
    13     4    16 ar  
    14     5     6 ar  
    15     5    25 1   
    16     6     7 ar  
    17     6    13 1   
    18     7     8 ar  
    19     7    15 1   
    20     8    16 ar  
    21     8    26 1   
    22     9    10 1   
    23     9    17 1   
    24     9    27 1   
    25     9    28 1   
    26    10    11 1   
    27    10    29 1   
    28    10    30 1   
    29    11    12 1   
    30    11    34 2   
    31    13    14 1   
    32    14    15 1   
    33    14    31 1   
    34    14    32 1   
    35    16    17 1   
    36    17    33 1   
@<TRIPOS>SUBSTRUCTURE
     1 JVQ         1 TEMP              0 ****  ****    0 ROOT
