@<TRIPOS>MOLECULE
JVQ
   34    36     1     0     0
SMALL
No Charge or Current Charge


@<TRIPOS>ATOM
      1 C1           3.4880    -2.9220    -0.3760 c3         1 JVQ      -0.110100
      2 C2           2.3450    -2.1430     0.2960 c3         1 JVQ       0.096000
      3 C4           1.2530    -0.5110    -1.2780 c3         1 JVQ       0.158300
      4 C5          -0.1160    -0.1220    -0.7370 ca         1 JVQ      -0.121300
      5 C6          -1.0830    -1.1380    -0.5460 ca         1 JVQ      -0.067000
      6 C7          -2.3480    -0.7750    -0.0730 ca         1 JVQ       0.029100
      7 C11         -2.6650     0.5240     0.1930 ca         1 JVQ       0.083100
      8 C12         -1.7410     1.5570     0.0120 ca         1 JVQ      -0.153000
      9 C15          1.6010     2.5600     0.2660 c3         1 JVQ       0.195800
     10 C16          2.8420     1.7230    -0.0800 c3         1 JVQ      -0.163400
     11 C17          2.7760     0.3250     0.5440 c          1 JVQ       0.564000
     12 N3           2.2420    -0.7510    -0.2040 n          1 JVQ      -0.405800
     13 O8          -3.3870    -1.6190     0.1520 os         1 JVQ      -0.342100
     14 C9          -4.4250    -0.7210     0.6840 c5         1 JVQ       0.372600
     15 O10         -3.9440     0.6690     0.6220 os         1 JVQ      -0.343100
     16 C13         -0.4490     1.2320    -0.4450 ca         1 JVQ       0.273000
     17 N14          0.4590     2.2810    -0.6210 nu         1 JVQ      -0.923200
     18 H1           3.5290    -3.9470     0.0100 hc         1 JVQ       0.040367
     19 H2           3.3400    -2.9670    -1.4610 hc         1 JVQ       0.040367
     20 H3           4.4520    -2.4390    -0.1760 hc         1 JVQ       0.040367
     21 H4           1.4000    -2.6680     0.1030 h1         1 JVQ       0.054700
     22 H5           2.4920    -2.1520     1.3830 h1         1 JVQ       0.054700
     23 H6           1.1520    -1.4280    -1.8720 h1         1 JVQ       0.062700
     24 H7           1.6130     0.2510    -1.9790 h1         1 JVQ       0.062700
     25 H8          -0.8610    -2.1800    -0.7650 ha         1 JVQ       0.133000
     26 H9          -2.0170     2.5840     0.2300 ha         1 JVQ       0.132000
     27 H10          1.3230     2.4180     1.3200 h1         1 JVQ       0.043700
     28 H11          1.8760     3.6170     0.1450 h1         1 JVQ       0.043700
     29 H12          2.9320     1.6760    -1.1690 hc         1 JVQ       0.074200
     30 H13          3.7140     2.2390     0.3350 hc         1 JVQ       0.074200
     31 H14         -5.3400    -0.8210     0.0880 h2         1 JVQ       0.065200
     32 H15         -4.6260    -0.9840     1.7290 h2         1 JVQ       0.065200
     33 H16          0.0040     3.1310    -0.9610 hn         1 JVQ       0.439000
     34 O18          3.2350     0.1460     1.6650 o          1 JVQ      -0.571000
@<TRIPOS>BOND
     1     1     2 1   
     2     1    18 1   
     3     1    19 1   
     4     1    20 1   
     5     2    12 1   
     6     2    21 1   
     7     2    22 1   
     8     3     4 1   
     9     3    12 1   
    10     3    23 1   
    11     3    24 1   
    12     4     5 ar  
    13     4    16 ar  
    14     5     6 ar  
    15     5    25 1   
    16     6     7 ar  
    17     6    13 1   
    18     7     8 ar  
    19     7    15 1   
    20     8    16 ar  
    21     8    26 1   
    22     9    10 1   
    23     9    17 1   
    24     9    27 1   
    25     9    28 1   
    26    10    11 1   
    27    10    29 1   
    28    10    30 1   
    29    11    12 1   
    30    11    34 2   
    31    13    14 1   
    32    14    15 1   
    33    14    31 1   
    34    14    32 1   
    35    16    17 1   
    36    17    33 1   
@<TRIPOS>SUBSTRUCTURE
     1 JVQ         1 TEMP              0 ****  ****    0 ROOT
