@<TRIPOS>MOLECULE
JVS
   30    30     1     0     0
SMALL
abcg2


@<TRIPOS>ATOM
      1 C02          2.1220    -0.9550     0.5690 c6         1 JVS       0.130300
      2 C03          2.4680     0.4750     0.1780 c6         1 JVS       0.102300
      3 C05          1.1950     1.2860    -0.1050 c6         1 JVS       0.175300
      4 C06          1.5580     2.6270    -0.7100 c3         1 JVS       0.173600
      5 C09         -0.0580    -0.6740    -0.6130 c6         1 JVS       0.481000
      6 C15         -0.9000    -1.2120    -1.7720 c3         1 JVS       0.193600
      7 C17          1.1910    -1.5670    -0.4660 c6         1 JVS       0.140300
      8 F16         -1.7970    -0.2670    -2.2410 f          1 JVS      -0.245000
      9 O07          0.4090     3.4250    -0.8510 oh         1 JVS      -0.641000
     10 O08          0.3910     0.5970    -1.0350 os         1 JVS      -0.473000
     11 O10         -0.6730    -0.6610     0.6060 os         1 JVS      -0.561400
     12 O1P         -2.3590     1.3130     0.5600 o          1 JVS      -0.907167
     13 O2           0.7830    -2.8660    -0.1150 oh         1 JVS      -0.675000
     14 O2P         -3.1920    -1.1040     0.2600 o          1 JVS      -0.907167
     15 O3           3.2780    -1.7650     0.6370 oh         1 JVS      -0.701000
     16 O3P         -2.2220    -0.3520     2.5050 o          1 JVS      -0.907167
     17 O4           3.2280     1.0300     1.2350 oh         1 JVS      -0.731000
     18 P           -2.2730    -0.1370     0.9980 p5         1 JVS       1.265900
     19 H1           1.6070    -0.9360     1.5400 h1         1 JVS       0.110700
     20 H2           3.0660     0.4350    -0.7450 h1         1 JVS       0.009700
     21 H3           0.6520     1.4520     0.8330 h1         1 JVS       0.122700
     22 H4           2.2940     3.1080    -0.0530 h1         1 JVS      -0.019300
     23 H5           2.0560     2.4590    -1.6760 h1         1 JVS      -0.019300
     24 H6          -0.2500    -1.4810    -2.6100 h1         1 JVS       0.028700
     25 H7          -1.4550    -2.0910    -1.4530 h1         1 JVS       0.028700
     26 H8           1.7190    -1.5770    -1.4330 h1         1 JVS      -0.007300
     27 H9           0.6860     4.2650    -1.2280 ho         1 JVS       0.455000
     28 H11          1.5710    -3.4160    -0.0510 ho         1 JVS       0.469000
     29 H12          3.8410    -1.4170     1.3350 ho         1 JVS       0.432000
     30 H14          3.8680     1.6460     0.8690 ho         1 JVS       0.476000
@<TRIPOS>BOND
     1     1     2 1   
     2     1     7 1   
     3     1    15 1   
     4     1    19 1   
     5     2     3 1   
     6     2    17 1   
     7     2    20 1   
     8     3     4 1   
     9     3    10 1   
    10     3    21 1   
    11     4     9 1   
    12     4    22 1   
    13     4    23 1   
    14     5     6 1   
    15     5     7 1   
    16     5    10 1   
    17     5    11 1   
    18     6     8 1   
    19     6    24 1   
    20     6    25 1   
    21     7    13 1   
    22     7    26 1   
    23     9    27 1   
    24    11    18 1   
    25    12    18 1   
    26    13    28 1   
    27    14    18 1   
    28    15    29 1   
    29    16    18 1   
    30    17    30 1   
@<TRIPOS>SUBSTRUCTURE
     1 JVS         1 TEMP              0 ****  ****    0 ROOT
