@<TRIPOS>MOLECULE
JVS
   30    30     1     0     0
SMALL
No Charge or Current Charge


@<TRIPOS>ATOM
      1 C02          1.8140    -1.0190     0.5470 c6         1 JVS       0.130300
      2 C03          2.4990     0.3270     0.1710 c6         1 JVS       0.102300
      3 C05          1.4060     1.4110    -0.1170 c6         1 JVS       0.175300
      4 C06          2.0230     2.7580    -0.6260 c3         1 JVS       0.173600
      5 C09         -0.2530    -0.2770    -0.7690 c6         1 JVS       0.481000
      6 C15         -1.1670    -0.6160    -2.0050 c3         1 JVS       0.193600
      7 C17          0.8200    -1.4310    -0.5740 c6         1 JVS       0.140300
      8 F16         -2.1060     0.3360    -2.2680 f          1 JVS      -0.245000
      9 O07          1.0390     3.7530    -0.9460 oh         1 JVS      -0.641000
     10 O08          0.4700     0.9320    -1.1250 os         1 JVS      -0.473000
     11 O10         -1.0720     0.0640     0.3790 os         1 JVS      -0.561400
     12 O1P         -2.8750    -1.7580     0.3350 o          1 JVS      -0.907167
     13 O2           0.3030    -2.7500    -0.3120 oh         1 JVS      -0.675000
     14 O2P         -1.2020    -1.7830     2.1290 o          1 JVS      -0.907167
     15 O3           2.8150    -2.0400     0.7480 oh         1 JVS      -0.701000
     16 O3P         -2.9060    -0.0840     2.0680 o          1 JVS      -0.907167
     17 O4           3.4050     0.7240     1.2220 oh         1 JVS      -0.731000
     18 P           -2.0170    -0.9290     1.2240 p5         1 JVS       1.265900
     19 H1           1.2430    -0.8580     1.4760 h1         1 JVS       0.110700
     20 H2           3.0710     0.1710    -0.7560 h1         1 JVS       0.009700
     21 H3           0.8600     1.6290     0.8130 h1         1 JVS       0.122700
     22 H4           2.6950     3.1510     0.1470 h1         1 JVS      -0.019300
     23 H5           2.6330     2.5470    -1.5130 h1         1 JVS      -0.019300
     24 H6          -0.5290    -0.7100    -2.8920 h1         1 JVS       0.028700
     25 H7          -1.6690    -1.5790    -1.8640 h1         1 JVS       0.028700
     26 H8           1.3990    -1.4850    -1.5090 h1         1 JVS      -0.007300
     27 H9           1.5240     4.5190    -1.3260 ho         1 JVS       0.455000
     28 H11          0.9760    -3.1530     0.2840 ho         1 JVS       0.469000
     29 H12          3.5590    -1.5700     1.1910 ho         1 JVS       0.432000
     30 H14          4.0470     1.3630     0.8340 ho         1 JVS       0.476000
@<TRIPOS>BOND
     1     1     2 1   
     2     1     7 1   
     3     1    15 1   
     4     1    19 1   
     5     2     3 1   
     6     2    17 1   
     7     2    20 1   
     8     3     4 1   
     9     3    10 1   
    10     3    21 1   
    11     4     9 1   
    12     4    22 1   
    13     4    23 1   
    14     5     6 1   
    15     5     7 1   
    16     5    10 1   
    17     5    11 1   
    18     6     8 1   
    19     6    24 1   
    20     6    25 1   
    21     7    13 1   
    22     7    26 1   
    23     9    27 1   
    24    11    18 1   
    25    12    18 1   
    26    13    28 1   
    27    14    18 1   
    28    15    29 1   
    29    16    18 1   
    30    17    30 1   
@<TRIPOS>SUBSTRUCTURE
     1 JVS         1 TEMP              0 ****  ****    0 ROOT
