@<TRIPOS>MOLECULE
JVT
   46    49     1     0     0
SMALL
bcc


@<TRIPOS>ATOM
      1 O            2.1630    -1.5540    -0.2960 o          1 JVT      -0.588100
      2 C11          2.3040    -0.3580    -0.0850 c          1 JVT       0.627800
      3 C12          3.6530     0.2280     0.0400 cc         1 JVT       0.293900
      4 N4           3.8370     1.5170     0.2250 nd         1 JVT      -0.517100
      5 N3           5.1390     1.7190     0.2930 na         1 JVT       0.008900
      6 C18          5.8500     0.5710     0.1540 ca         1 JVT      -0.053200
      7 C17          7.2280     0.3310     0.1640 ca         1 JVT      -0.150000
      8 C16          7.6250    -0.9750    -0.0040 ca         1 JVT      -0.088000
      9 C15          6.6910    -2.0180    -0.1760 ca         1 JVT      -0.164000
     10 C14          5.3370    -1.7760    -0.1850 ca         1 JVT      -0.040000
     11 C13          4.9020    -0.4520    -0.0170 ca         1 JVT      -0.183900
     12 N2           1.2960     0.5300     0.0510 ns         1 JVT      -0.454100
     13 C8          -0.0860     0.3110     0.0070 ca         1 JVT       0.039600
     14 C7          -0.9100     1.3880     0.3430 ca         1 JVT      -0.136000
     15 C6          -2.2850     1.2780     0.3190 ca         1 JVT      -0.153500
     16 C9          -0.6960    -0.8860    -0.3540 ca         1 JVT      -0.136000
     17 C10         -2.0820    -0.9960    -0.3610 ca         1 JVT      -0.153500
     18 C5          -2.9160     0.0750    -0.0310 ca         1 JVT       0.133600
     19 N1          -4.3080    -0.0040    -0.0760 nh         1 JVT      -0.650000
     20 C2          -4.9070    -1.2160    -0.5970 c6         1 JVT       0.197800
     21 C1          -6.3710    -0.9810    -0.9220 c6         1 JVT       0.157300
     22 C3          -5.0430     0.5070     1.0720 c6         1 JVT       0.197800
     23 C4          -6.5010     0.7220     0.7200 c6         1 JVT       0.157300
     24 N           -7.0970    -0.5060     0.2360 n3         1 JVT      -0.713600
     25 C           -8.5030    -0.3390    -0.0480 c3         1 JVT       0.152100
     26 H2           1.5760     1.4820     0.2480 hn         1 JVT       0.334500
     27 H3           5.4920     2.6540     0.4240 hn         1 JVT       0.329700
     28 H17          7.9440     1.1310     0.2950 ha         1 JVT       0.139000
     29 H16          8.6810    -1.2100    -0.0040 ha         1 JVT       0.133000
     30 H15          7.0530    -3.0300    -0.3050 ha         1 JVT       0.136000
     31 H14          4.6270    -2.5800    -0.3180 ha         1 JVT       0.161000
     32 H7          -0.4680     2.3370     0.6220 ha         1 JVT       0.144500
     33 H9          -0.1120    -1.7500    -0.6240 ha         1 JVT       0.144500
     34 H6          -2.8680     2.1560     0.5620 ha         1 JVT       0.132000
     35 H10         -2.4960    -1.9580    -0.6300 ha         1 JVT       0.132000
     36 H21C        -4.4000    -1.5070    -1.5180 h1         1 JVT       0.044200
     37 H22C        -4.8150    -2.0540     0.1110 h1         1 JVT       0.044200
     38 H31C        -4.9720    -0.1910     1.9200 h1         1 JVT       0.044200
     39 H32C        -4.6240     1.4570     1.3970 h1         1 JVT       0.044200
     40 H11C        -6.4380    -0.2690    -1.7640 h1         1 JVT       0.038950
     41 H12C        -6.8090    -1.9230    -1.2600 h1         1 JVT       0.038950
     42 H41C        -7.0340     1.0510     1.6160 h1         1 JVT       0.038950
     43 H42C        -6.5790     1.5340    -0.0240 h1         1 JVT       0.038950
     44 HC1         -8.9370    -1.2860    -0.3700 h1         1 JVT       0.031367
     45 HC2         -9.0320    -0.0180     0.8510 h1         1 JVT       0.031367
     46 HC3         -8.7000     0.4070    -0.8350 h1         1 JVT       0.031367
@<TRIPOS>BOND
     1     1     2 2   
     2     2     3 1   
     3     2    12 1   
     4     3     4 2   
     5     3    11 1   
     6     4     5 1   
     7     5     6 1   
     8     5    27 1   
     9     6     7 ar  
    10     6    11 ar  
    11     7     8 ar  
    12     7    28 1   
    13     8     9 ar  
    14     8    29 1   
    15     9    10 ar  
    16     9    30 1   
    17    10    11 ar  
    18    10    31 1   
    19    12    13 1   
    20    12    26 1   
    21    13    14 ar  
    22    13    16 ar  
    23    14    15 ar  
    24    14    32 1   
    25    15    18 ar  
    26    15    34 1   
    27    16    17 ar  
    28    16    33 1   
    29    17    18 ar  
    30    17    35 1   
    31    18    19 1   
    32    19    20 1   
    33    19    22 1   
    34    20    21 1   
    35    20    36 1   
    36    20    37 1   
    37    21    24 1   
    38    21    40 1   
    39    21    41 1   
    40    22    23 1   
    41    22    38 1   
    42    22    39 1   
    43    23    24 1   
    44    23    42 1   
    45    23    43 1   
    46    24    25 1   
    47    25    44 1   
    48    25    45 1   
    49    25    46 1   
@<TRIPOS>SUBSTRUCTURE
     1 JVT         1 TEMP              0 ****  ****    0 ROOT
