@<TRIPOS>MOLECULE
JVT
   46    49     1     0     0
SMALL
No Charge or Current Charge


@<TRIPOS>ATOM
      1 O            2.3110    -1.6550    -0.2100 o          1 JVT      -0.588100
      2 C11          2.4280    -0.4430    -0.0250 c          1 JVT       0.560800
      3 C12          3.7440     0.2810     0.0830 cc         1 JVT       0.293900
      4 N4           3.8800     1.6130     0.2850 nd         1 JVT      -0.517100
      5 N3           5.2660     1.8090     0.3130 na         1 JVT      -0.041400
      6 C18          5.9600     0.6340     0.1330 ca         1 JVT      -0.053200
      7 C17          7.3400     0.3990     0.0940 ca         1 JVT      -0.132000
      8 C16          7.7710    -0.9290    -0.1090 ca         1 JVT      -0.070000
      9 C15          6.8240    -1.9710    -0.2650 ca         1 JVT      -0.146000
     10 C14          5.4390    -1.6960    -0.2210 ca         1 JVT      -0.022000
     11 C13          5.0450    -0.3620    -0.0170 ca         1 JVT      -0.183900
     12 N2           1.3440     0.4220     0.1080 ns         1 JVT      -0.128000
     13 C8          -0.0660     0.2200     0.0820 ca         1 JVT      -0.053000
     14 C7          -0.8880     1.3500     0.2400 ca         1 JVT      -0.118000
     15 C6          -2.2880     1.2270     0.2250 ca         1 JVT      -0.135500
     16 C9          -0.6740    -1.0420    -0.0930 ca         1 JVT      -0.118000
     17 C10         -2.0760    -1.1610    -0.1080 ca         1 JVT      -0.135500
     18 C5          -2.9000    -0.0280     0.0530 ca         1 JVT       0.272000
     19 N1          -4.3130    -0.1310     0.0390 nh         1 JVT      -0.788400
     20 C2          -5.0060    -1.2570    -0.6670 c6         1 JVT       0.197800
     21 C1          -6.4930    -0.9240    -1.0210 c6         1 JVT       0.157300
     22 C3          -5.1150     0.4150     1.1830 c6         1 JVT       0.197800
     23 C4          -6.6000     0.7140     0.7910 c6         1 JVT       0.157300
     24 N           -7.2820    -0.4570     0.1600 n3         1 JVT      -0.713600
     25 C           -8.6970    -0.1840    -0.1700 c3         1 JVT       0.152100
     26 H2           1.6160     1.3870     0.2530 hn         1 JVT       0.168000
     27 H3           5.6730     2.7330     0.4530 hn         1 JVT       0.380000
     28 H17          8.0560     1.2090     0.2160 ha         1 JVT       0.121000
     29 H16          8.8350    -1.1540    -0.1450 ha         1 JVT       0.115000
     30 H15          7.1650    -2.9920    -0.4210 ha         1 JVT       0.118000
     31 H14          4.7140    -2.4980    -0.3420 ha         1 JVT       0.143000
     32 H7          -0.4420     2.3340     0.3730 ha         1 JVT       0.126500
     33 H9          -0.0840    -1.9450    -0.2170 ha         1 JVT       0.126500
     34 H6          -2.9010     2.1170     0.3360 ha         1 JVT       0.114000
     35 H10         -2.5160    -2.1450    -0.2350 ha         1 JVT       0.114000
     36 H21C        -4.4790    -1.5020    -1.6010 h1         1 JVT       0.044200
     37 H22C        -4.9900    -2.1570    -0.0350 h1         1 JVT       0.044200
     38 H31C        -5.1110    -0.3100     2.0110 h1         1 JVT       0.044200
     39 H32C        -4.6680     1.3430     1.5670 h1         1 JVT       0.044200
     40 H11C        -6.4970    -0.1500    -1.8040 h1         1 JVT       0.038950
     41 H12C        -6.9570    -1.8200    -1.4580 h1         1 JVT       0.038950
     42 H41C        -7.1420     1.0280     1.6950 h1         1 JVT       0.038950
     43 H42C        -6.6090     1.5700     0.1000 h1         1 JVT       0.038950
     44 HC1         -9.1770    -1.0790    -0.5870 h1         1 JVT       0.031367
     45 HC2         -9.2540     0.1110     0.7290 h1         1 JVT       0.031367
     46 HC3         -8.7790     0.6260    -0.9070 h1         1 JVT       0.031367
@<TRIPOS>BOND
     1     1     2 2   
     2     2     3 1   
     3     2    12 1   
     4     3     4 2   
     5     3    11 1   
     6     4     5 1   
     7     5     6 1   
     8     5    27 1   
     9     6     7 ar  
    10     6    11 ar  
    11     7     8 ar  
    12     7    28 1   
    13     8     9 ar  
    14     8    29 1   
    15     9    10 ar  
    16     9    30 1   
    17    10    11 ar  
    18    10    31 1   
    19    12    13 1   
    20    12    26 1   
    21    13    14 ar  
    22    13    16 ar  
    23    14    15 ar  
    24    14    32 1   
    25    15    18 ar  
    26    15    34 1   
    27    16    17 ar  
    28    16    33 1   
    29    17    18 ar  
    30    17    35 1   
    31    18    19 1   
    32    19    20 1   
    33    19    22 1   
    34    20    21 1   
    35    20    36 1   
    36    20    37 1   
    37    21    24 1   
    38    21    40 1   
    39    21    41 1   
    40    22    23 1   
    41    22    38 1   
    42    22    39 1   
    43    23    24 1   
    44    23    42 1   
    45    23    43 1   
    46    24    25 1   
    47    25    44 1   
    48    25    45 1   
    49    25    46 1   
@<TRIPOS>SUBSTRUCTURE
     1 JVT         1 TEMP              0 ****  ****    0 ROOT
