@<TRIPOS>MOLECULE
JVU
  119   123     1     0     0
SMALL
No Charge or Current Charge


@<TRIPOS>ATOM
      1 N1           6.1270    -9.6930     6.1580 nv         1 JVU      -1.033200
      2 C7          -0.6000   -14.2840     2.9480 c          1 JVU       0.576100
      3 C8          -1.7010   -13.2720     2.5270 c3         1 JVU       0.035700
      4 N2           5.5300    -9.7180     4.0260 n2         1 JVU      -0.915100
      5 C9          -2.8650   -13.9930     1.7970 c3         1 JVU      -0.078400
      6 C1           4.1630   -12.1470     4.7070 c3         1 JVU       0.159500
      7 C5           1.3480   -14.7940     5.6780 c3         1 JVU      -0.097400
      8 C6           0.2940   -15.6160     4.8980 c3         1 JVU       0.101000
      9 N3          -0.7060   -14.7690     4.2360 ns         1 JVU      -0.498900
     10 C4           2.2500   -13.9050     4.7890 c3         1 JVU      -0.076400
     11 C3           3.3080   -13.1010     5.5840 c3         1 JVU      -0.074400
     12 C2           5.2960    -9.9590     5.2140 c2         1 JVU       0.800100
     13 N4          -6.9020   -11.4090     3.5260 n8         1 JVU      -0.998200
     14 N            4.8170   -11.1250     5.6020 nu         1 JVU      -0.995400
     15 C            5.1820   -12.9300     3.7970 c          1 JVU       0.570100
     16 O            4.8570   -13.6250     2.8440 o          1 JVU      -0.594100
     17 C10         -4.0950   -13.1110     1.4650 c3         1 JVU      -0.070400
     18 C11         -4.8960   -12.6460     2.7040 c3         1 JVU      -0.083400
     19 C12         -6.1390   -11.8130     2.3310 c3         1 JVU       0.153800
     20 C13         -1.2750   -10.8790     1.7770 c          1 JVU       0.589100
     21 C14         -0.3290    -9.9880     0.9220 c3         1 JVU       0.019700
     22 C15         -1.0970    -9.1040    -0.0890 c3         1 JVU      -0.034100
     23 C16         -0.1560    -8.2970    -0.9820 ca         1 JVU      -0.095300
     24 C17         -0.1150    -8.5300    -2.3700 ca         1 JVU      -0.110000
     25 C18          0.7840    -7.8190    -3.1840 ca         1 JVU      -0.102000
     26 C19          1.6520    -6.8690    -2.6160 ca         1 JVU      -0.038000
     27 C20          2.5620    -6.1630    -3.4250 ca         1 JVU      -0.107000
     28 C21          3.4300    -5.2180    -2.8510 ca         1 JVU      -0.104000
     29 C22          3.3910    -4.9770    -1.4670 ca         1 JVU      -0.108000
     30 C23          2.4850    -5.6800    -0.6540 ca         1 JVU      -0.082000
     31 C24          1.6120    -6.6260    -1.2260 ca         1 JVU      -0.032000
     32 C25          0.7080    -7.3380    -0.4160 ca         1 JVU      -0.078000
     33 C26          1.9150   -11.1450     0.8160 c          1 JVU       0.610100
     34 C27          2.9730   -11.7010    -0.1400 c3         1 JVU      -0.104100
     35 C28          4.1310   -10.7170    -0.2650 ca         1 JVU      -0.081300
     36 C29          5.3750   -11.0120     0.3230 ca         1 JVU      -0.076000
     37 C30          6.4340   -10.0800     0.2830 ca         1 JVU      -0.101300
     38 C31          7.7760   -10.3820     0.9490 c3         1 JVU       0.147300
     39 C32          8.1500   -12.5230     2.2370 c          1 JVU       0.581100
     40 C33          7.6610   -13.3670     3.4550 c3         1 JVU       0.030700
     41 C34          8.8130   -13.6430     4.4630 c3         1 JVU      -0.075400
     42 C35          8.5950   -14.7630     5.5370 c6         1 JVU      -0.058700
     43 C36          8.5000   -16.1960     4.9190 c6         1 JVU      -0.070900
     44 C37          7.8740   -17.2440     5.8860 c6         1 JVU      -0.073400
     45 C38          8.0910   -16.8670     7.3700 c6         1 JVU      -0.074400
     46 C39          7.4400   -15.4960     7.7140 c6         1 JVU      -0.073400
     47 C40          7.4140   -14.5080     6.5120 c6         1 JVU      -0.070900
     48 C41          6.2410    -8.8550    -0.3860 ca         1 JVU      -0.093000
     49 C42          5.0080    -8.5640    -0.9940 ca         1 JVU      -0.106000
     50 C43          3.9540    -9.4900    -0.9300 ca         1 JVU      -0.098000
     51 N5          -1.0820   -12.2400     1.6670 ns         1 JVU      -0.492900
     52 N6           0.7290   -10.7670     0.2280 ns         1 JVU      -0.511900
     53 N7           7.6330   -11.2480     2.1230 ns         1 JVU      -0.492900
     54 N8           6.5060   -12.7330     4.1240 ns         1 JVU      -0.507900
     55 O2           2.0980   -11.0410     2.0200 o          1 JVU      -0.613100
     56 H1           6.3700   -10.5540     6.6150 hn         1 JVU       0.462000
     57 H2           6.9180    -9.1970     5.7790 hn         1 JVU       0.462000
     58 H3          -2.0750   -12.8020     3.4450 h1         1 JVU       0.085700
     59 H4           4.8480   -10.2670     3.4990 hn         1 JVU       0.421400
     60 H5          -3.1980   -14.8410     2.4080 hc         1 JVU       0.056200
     61 H6          -2.4800   -14.4230     0.8630 hc         1 JVU       0.056200
     62 H7           3.4760   -11.6360     4.0200 h1         1 JVU       0.116700
     63 H8           1.9830   -15.4900     6.2400 hc         1 JVU       0.041700
     64 H9           0.8350   -14.1680     6.4200 hc         1 JVU       0.041700
     65 H10         -0.2300   -16.2810     5.5980 h1         1 JVU       0.062200
     66 H11          0.7940   -16.2500     4.1530 h1         1 JVU       0.062200
     67 H12         -1.4990   -14.4510     4.7810 hn         1 JVU       0.315500
     68 H13          1.6260   -13.1950     4.2330 hc         1 JVU       0.064700
     69 H14          2.7450   -14.5430     4.0470 hc         1 JVU       0.064700
     70 H15          3.9690   -13.7890     6.1260 hc         1 JVU       0.044200
     71 H16          2.7780   -12.5100     6.3400 hc         1 JVU       0.044200
     72 H17         -7.7500   -10.9110     3.2280 hn         1 JVU       0.390500
     73 H18         -7.2680   -12.2510     3.9870 hn         1 JVU       0.390500
     74 H20          4.4250   -11.0550     6.5370 hn         1 JVU       0.484000
     75 H21         -4.7650   -13.6890     0.8150 hc         1 JVU       0.040700
     76 H22         -3.7790   -12.2380     0.8810 hc         1 JVU       0.040700
     77 H23         -4.2520   -12.0470     3.3570 hc         1 JVU       0.050700
     78 H24         -5.2100   -13.5260     3.2790 hc         1 JVU       0.050700
     79 H25         -6.7970   -12.4010     1.6760 h1         1 JVU       0.025700
     80 H26         -5.8290   -10.9080     1.7890 h1         1 JVU       0.025700
     81 H27          0.1670    -9.3230     1.6410 h1         1 JVU       0.107700
     82 H28         -1.7640    -8.4270     0.4590 hc         1 JVU       0.067200
     83 H29         -1.7470    -9.7460    -0.6970 hc         1 JVU       0.067200
     84 H30         -0.7730    -9.2690    -2.8220 ha         1 JVU       0.107000
     85 H31          0.8080    -8.0120    -4.2540 ha         1 JVU       0.113000
     86 H32          2.5990    -6.3450    -4.4970 ha         1 JVU       0.111000
     87 H33          4.1330    -4.6740    -3.4780 ha         1 JVU       0.112000
     88 H34          4.0650    -4.2470    -1.0230 ha         1 JVU       0.115000
     89 H35          2.4630    -5.4900     0.4160 ha         1 JVU       0.122000
     90 H36          0.6840    -7.1540     0.6560 ha         1 JVU       0.121000
     91 H37          2.5330   -11.8790    -1.1280 hc         1 JVU       0.071700
     92 H38          3.3290   -12.6550     0.2650 hc         1 JVU       0.071700
     93 H39          5.5090   -11.9670     0.8240 ha         1 JVU       0.130000
     94 H40          8.4450   -10.8460     0.2130 h1         1 JVU       0.064700
     95 H41          8.2420    -9.4420     1.2740 h1         1 JVU       0.064700
     96 H42          7.3310   -14.3200     3.0240 h1         1 JVU       0.103700
     97 H43          9.7090   -13.9040     3.8870 hc         1 JVU       0.055200
     98 H44          9.0600   -12.7000     4.9670 hc         1 JVU       0.055200
     99 H45          9.5130   -14.7340     6.1420 hc         1 JVU       0.045700
    100 H46          7.9110   -16.1890     3.9940 hc         1 JVU       0.039950
    101 H47          9.5080   -16.5230     4.6280 hc         1 JVU       0.039950
    102 H48          6.7950   -17.3210     5.6920 hc         1 JVU       0.038700
    103 H49          8.2940   -18.2380     5.6810 hc         1 JVU       0.038700
    104 H50          7.6830   -17.6490     8.0250 hc         1 JVU       0.038700
    105 H51          9.1700   -16.8260     7.5780 hc         1 JVU       0.038700
    106 H52          7.9850   -15.0440     8.5550 hc         1 JVU       0.038700
    107 H53          6.4120   -15.6520     8.0690 hc         1 JVU       0.038700
    108 H54          7.4310   -13.4740     6.8830 hc         1 JVU       0.039950
    109 H55          6.4630   -14.6340     5.9770 hc         1 JVU       0.039950
    110 H56          7.0470    -8.1260    -0.4330 ha         1 JVU       0.108000
    111 H57          4.8650    -7.6160    -1.5070 ha         1 JVU       0.114000
    112 H58          2.9980    -9.2490    -1.3890 ha         1 JVU       0.112000
    113 H59         -0.3400   -12.5280     1.0390 hn         1 JVU       0.338500
    114 H60          0.6710   -10.8630    -0.7800 hn         1 JVU       0.315500
    115 H61          7.0120   -10.9410     2.8670 hn         1 JVU       0.332500
    116 H62          6.6550   -12.1150     4.9140 hn         1 JVU       0.316500
    117 O4           0.3150   -14.6140     2.2020 o          1 JVU      -0.606100
    118 O1           8.9130   -12.9820     1.3960 o          1 JVU      -0.615100
    119 O3          -2.1120   -10.4040     2.5330 o          1 JVU      -0.611100
@<TRIPOS>BOND
     1     1    12 1   
     2     1    56 1   
     3     1    57 1   
     4     2     3 1   
     5     2     9 1   
     6     2   117 2   
     7     3     5 1   
     8     3    51 1   
     9     3    58 1   
    10     4    12 2   
    11     4    59 1   
    12     5    17 1   
    13     5    60 1   
    14     5    61 1   
    15     6    11 1   
    16     6    14 1   
    17     6    15 1   
    18     6    62 1   
    19     7     8 1   
    20     7    10 1   
    21     7    63 1   
    22     7    64 1   
    23     8     9 1   
    24     8    65 1   
    25     8    66 1   
    26     9    67 1   
    27    10    11 1   
    28    10    68 1   
    29    10    69 1   
    30    11    70 1   
    31    11    71 1   
    32    12    14 1   
    33    13    19 1   
    34    13    72 1   
    35    13    73 1   
    36    14    74 1   
    37    15    16 2   
    38    15    54 1   
    39    17    18 1   
    40    17    75 1   
    41    17    76 1   
    42    18    19 1   
    43    18    77 1   
    44    18    78 1   
    45    19    79 1   
    46    19    80 1   
    47    20    21 1   
    48    20    51 1   
    49    20   119 2   
    50    21    22 1   
    51    21    52 1   
    52    21    81 1   
    53    22    23 1   
    54    22    82 1   
    55    22    83 1   
    56    23    24 ar  
    57    23    32 ar  
    58    24    25 ar  
    59    24    84 1   
    60    25    26 ar  
    61    25    85 1   
    62    26    27 ar  
    63    26    31 ar  
    64    27    28 ar  
    65    27    86 1   
    66    28    29 ar  
    67    28    87 1   
    68    29    30 ar  
    69    29    88 1   
    70    30    31 ar  
    71    30    89 1   
    72    31    32 ar  
    73    32    90 1   
    74    33    34 1   
    75    33    52 1   
    76    33    55 2   
    77    34    35 1   
    78    34    91 1   
    79    34    92 1   
    80    35    36 ar  
    81    35    50 ar  
    82    36    37 ar  
    83    36    93 1   
    84    37    38 1   
    85    37    48 ar  
    86    38    53 1   
    87    38    94 1   
    88    38    95 1   
    89    39    40 1   
    90    39    53 1   
    91    39   118 2   
    92    40    41 1   
    93    40    54 1   
    94    40    96 1   
    95    41    42 1   
    96    41    97 1   
    97    41    98 1   
    98    42    43 1   
    99    42    47 1   
   100    42    99 1   
   101    43    44 1   
   102    43   100 1   
   103    43   101 1   
   104    44    45 1   
   105    44   102 1   
   106    44   103 1   
   107    45    46 1   
   108    45   104 1   
   109    45   105 1   
   110    46    47 1   
   111    46   106 1   
   112    46   107 1   
   113    47   108 1   
   114    47   109 1   
   115    48    49 ar  
   116    48   110 1   
   117    49    50 ar  
   118    49   111 1   
   119    50   112 1   
   120    51   113 1   
   121    52   114 1   
   122    53   115 1   
   123    54   116 1   
@<TRIPOS>SUBSTRUCTURE
     1 JVU         1 TEMP              0 ****  ****    0 ROOT
