@<TRIPOS>MOLECULE
JVU
  119   123     1     0     0
SMALL
abcg2


@<TRIPOS>ATOM
      1 N1           6.0560    -8.8130     5.1220 nv         1 JVU      -1.033200
      2 C7          -0.7010   -14.4190     3.3260 c          1 JVU       0.576100
      3 C8          -1.7710   -13.5140     2.7090 c3         1 JVU       0.035700
      4 N2           5.2680    -9.5150     3.0620 n2         1 JVU      -0.915100
      5 C9          -2.7240   -14.3360     1.8330 c3         1 JVU      -0.078400
      6 C1           4.0100   -11.7870     4.4280 c3         1 JVU       0.159500
      7 C5           1.4020   -14.2500     6.0010 c3         1 JVU      -0.097400
      8 C6           0.3280   -15.1830     5.4410 c3         1 JVU       0.101000
      9 N3          -0.6800   -14.4690     4.6660 ns         1 JVU      -0.498900
     10 C4           2.2260   -13.5590     4.9180 c3         1 JVU      -0.076400
     11 C3           3.2410   -12.5790     5.4970 c3         1 JVU      -0.074400
     12 C2           5.3210    -9.6840     4.3430 c2         1 JVU       0.800100
     13 N4          -6.9490   -11.6830     2.5060 n8         1 JVU      -0.998200
     14 N            4.6900   -10.6700     5.0520 nu         1 JVU      -0.995400
     15 C            4.9700   -12.6990     3.6480 c          1 JVU       0.570100
     16 O            4.5580   -13.4450     2.7600 o          1 JVU      -0.594100
     17 C10         -3.8480   -13.5170     1.2000 c3         1 JVU      -0.070400
     18 C11         -4.8670   -12.9720     2.1980 c3         1 JVU      -0.083400
     19 C12         -5.9920   -12.2040     1.5190 c3         1 JVU       0.153800
     20 C13         -1.2170   -11.1750     2.1200 c          1 JVU       0.589100
     21 C14         -0.2460   -10.2820     1.3410 c3         1 JVU       0.019700
     22 C15         -0.9770    -9.1580     0.5870 c3         1 JVU      -0.034100
     23 C16          0.0000    -8.2690    -0.1450 ca         1 JVU      -0.095300
     24 C17         -0.0480    -8.1810    -1.5570 ca         1 JVU      -0.110000
     25 C18          0.8650    -7.4310    -2.2550 ca         1 JVU      -0.102000
     26 C19          1.8960    -6.7350    -1.5820 ca         1 JVU      -0.038000
     27 C20          2.8750    -5.9760    -2.2690 ca         1 JVU      -0.107000
     28 C21          3.8750    -5.3370    -1.5830 ca         1 JVU      -0.104000
     29 C22          3.9410    -5.4260    -0.1740 ca         1 JVU      -0.108000
     30 C23          3.0040    -6.1470     0.5210 ca         1 JVU      -0.082000
     31 C24          1.9570    -6.8190    -0.1590 ca         1 JVU      -0.032000
     32 C25          0.9870    -7.5860     0.5270 ca         1 JVU      -0.078000
     33 C26          1.9730   -11.0780     0.6700 c          1 JVU       0.610100
     34 C27          2.7930   -11.6880    -0.4570 c3         1 JVU      -0.104100
     35 C28          4.0480   -10.8880    -0.6900 ca         1 JVU      -0.081300
     36 C29          5.2410   -11.2640    -0.0820 ca         1 JVU      -0.076000
     37 C30          6.3880   -10.4830    -0.1990 ca         1 JVU      -0.101300
     38 C31          7.6740   -10.8890     0.4890 c3         1 JVU       0.147300
     39 C32          7.7430   -12.8270     2.0060 c          1 JVU       0.581100
     40 C33          7.3050   -13.4020     3.3620 c3         1 JVU       0.030700
     41 C34          8.5200   -13.5540     4.2880 c3         1 JVU      -0.075400
     42 C35          8.3920   -14.6120     5.3940 c6         1 JVU      -0.058700
     43 C36          8.4120   -16.0460     4.8200 c6         1 JVU      -0.070900
     44 C37          7.7820   -17.0780     5.7730 c6         1 JVU      -0.073400
     45 C38          8.0180   -16.6860     7.2310 c6         1 JVU      -0.074400
     46 C39          7.3150   -15.3530     7.5600 c6         1 JVU      -0.073400
     47 C40          7.1920   -14.4350     6.3290 c6         1 JVU      -0.070900
     48 C41          6.3330    -9.3130    -0.9520 ca         1 JVU      -0.093000
     49 C42          5.1480    -8.9340    -1.5760 ca         1 JVU      -0.106000
     50 C43          4.0070    -9.7150    -1.4430 ca         1 JVU      -0.098000
     51 N5          -1.0660   -12.4970     1.9440 ns         1 JVU      -0.492900
     52 N6           0.6400   -11.0020     0.4500 ns         1 JVU      -0.511900
     53 N7           7.4360   -11.5440     1.7620 ns         1 JVU      -0.492900
     54 N8           6.2640   -12.6270     4.0020 ns         1 JVU      -0.507900
     55 O2           2.4900   -10.6940     1.7150 o          1 JVU      -0.613100
     56 H1           6.4950    -9.1960     5.9460 hn         1 JVU       0.462000
     57 H2           6.6580    -8.2040     4.5890 hn         1 JVU       0.462000
     58 H3          -2.3250   -12.9960     3.4880 h1         1 JVU       0.085700
     59 H4           4.5810   -10.1200     2.6190 hn         1 JVU       0.421400
     60 H5          -3.1480   -15.1330     2.4510 hc         1 JVU       0.056200
     61 H6          -2.1310   -14.8190     1.0530 hc         1 JVU       0.056200
     62 H7           3.2950   -11.4220     3.6900 h1         1 JVU       0.116700
     63 H8           2.0580   -14.8400     6.6490 hc         1 JVU       0.041700
     64 H9           0.9230   -13.4990     6.6380 hc         1 JVU       0.041700
     65 H10         -0.1770   -15.7040     6.2550 h1         1 JVU       0.062200
     66 H11          0.7730   -15.9290     4.7850 h1         1 JVU       0.062200
     67 H12         -1.3330   -13.8900     5.1710 hn         1 JVU       0.315500
     68 H13          1.5590   -13.0140     4.2450 hc         1 JVU       0.064700
     69 H14          2.7330   -14.3090     4.3100 hc         1 JVU       0.064700
     70 H15          3.9510   -13.0990     6.1470 hc         1 JVU       0.044200
     71 H16          2.7150   -11.8470     6.1170 hc         1 JVU       0.044200
     72 H17         -7.6810   -11.1610     2.0340 hn         1 JVU       0.390500
     73 H18         -7.4150   -12.4600     2.9660 hn         1 JVU       0.390500
     74 H20          4.7530   -10.6550     6.0580 hn         1 JVU       0.484000
     75 H21         -4.3630   -14.1520     0.4730 hc         1 JVU       0.040700
     76 H22         -3.4150   -12.6880     0.6310 hc         1 JVU       0.040700
     77 H23         -4.3780   -12.3120     2.9180 hc         1 JVU       0.050700
     78 H24         -5.2950   -13.8050     2.7690 hc         1 JVU       0.050700
     79 H25         -6.4680   -12.8530     0.7700 h1         1 JVU       0.025700
     80 H26         -5.5720   -11.3520     0.9770 h1         1 JVU       0.025700
     81 H27          0.3930    -9.8380     2.1050 h1         1 JVU       0.107700
     82 H28         -1.5620    -8.5920     1.3120 hc         1 JVU       0.067200
     83 H29         -1.6780    -9.5990    -0.1250 hc         1 JVU       0.067200
     84 H30         -0.8190    -8.7250    -2.0890 ha         1 JVU       0.107000
     85 H31          0.8150    -7.3760    -3.3360 ha         1 JVU       0.113000
     86 H32          2.8250    -5.9190    -3.3500 ha         1 JVU       0.111000
     87 H33          4.6240    -4.7670    -2.1180 ha         1 JVU       0.112000
     88 H34          4.7400    -4.9230     0.3560 ha         1 JVU       0.115000
     89 H35          3.0550    -6.2200     1.6010 ha         1 JVU       0.122000
     90 H36          1.0530    -7.6460     1.6080 ha         1 JVU       0.121000
     91 H37          2.1950   -11.7550    -1.3670 hc         1 JVU       0.071700
     92 H38          3.0440   -12.7060    -0.1490 hc         1 JVU       0.071700
     93 H39          5.2620   -12.1620     0.5220 ha         1 JVU       0.130000
     94 H40          8.2390   -11.5860    -0.1310 h1         1 JVU       0.064700
     95 H41          8.2980   -10.0070     0.6420 h1         1 JVU       0.064700
     96 H42          6.8940   -14.3820     3.1200 h1         1 JVU       0.103700
     97 H43          9.3790   -13.8150     3.6660 hc         1 JVU       0.055200
     98 H44          8.7370   -12.5770     4.7310 hc         1 JVU       0.055200
     99 H45          9.2900   -14.4910     6.0100 hc         1 JVU       0.045700
    100 H46          7.8850   -16.0740     3.8640 hc         1 JVU       0.039950
    101 H47          9.4490   -16.3210     4.6080 hc         1 JVU       0.039950
    102 H48          6.7050   -17.1380     5.5930 hc         1 JVU       0.038700
    103 H49          8.1870   -18.0710     5.5670 hc         1 JVU       0.038700
    104 H50          7.6680   -17.4720     7.9050 hc         1 JVU       0.038700
    105 H51          9.0950   -16.5920     7.4010 hc         1 JVU       0.038700
    106 H52          7.8690   -14.8360     8.3480 hc         1 JVU       0.038700
    107 H53          6.3170   -15.5500     7.9580 hc         1 JVU       0.038700
    108 H54          7.1060   -13.3950     6.6510 hc         1 JVU       0.039950
    109 H55          6.2720   -14.6640     5.7850 hc         1 JVU       0.039950
    110 H56          7.2140    -8.6870    -1.0380 ha         1 JVU       0.108000
    111 H57          5.1060    -8.0150    -2.1470 ha         1 JVU       0.114000
    112 H58          3.0780    -9.4010    -1.9030 ha         1 JVU       0.112000
    113 H59         -0.3400   -12.8120     1.3170 hn         1 JVU       0.338500
    114 H60          0.2990   -11.2320    -0.4720 hn         1 JVU       0.315500
    115 H61          6.8630   -11.0370     2.4290 hn         1 JVU       0.332500
    116 H62          6.5120   -12.0030     4.7540 hn         1 JVU       0.316500
    117 O4           0.0820   -15.0350     2.6000 o          1 JVU      -0.606100
    118 O1           8.3640   -13.5490     1.2230 o          1 JVU      -0.615100
    119 O3          -2.0450   -10.6680     2.8760 o          1 JVU      -0.611100
@<TRIPOS>BOND
     1     1    12 1   
     2     1    56 1   
     3     1    57 1   
     4     2     3 1   
     5     2     9 1   
     6     2   117 2   
     7     3     5 1   
     8     3    51 1   
     9     3    58 1   
    10     4    12 2   
    11     4    59 1   
    12     5    17 1   
    13     5    60 1   
    14     5    61 1   
    15     6    11 1   
    16     6    14 1   
    17     6    15 1   
    18     6    62 1   
    19     7     8 1   
    20     7    10 1   
    21     7    63 1   
    22     7    64 1   
    23     8     9 1   
    24     8    65 1   
    25     8    66 1   
    26     9    67 1   
    27    10    11 1   
    28    10    68 1   
    29    10    69 1   
    30    11    70 1   
    31    11    71 1   
    32    12    14 1   
    33    13    19 1   
    34    13    72 1   
    35    13    73 1   
    36    14    74 1   
    37    15    16 2   
    38    15    54 1   
    39    17    18 1   
    40    17    75 1   
    41    17    76 1   
    42    18    19 1   
    43    18    77 1   
    44    18    78 1   
    45    19    79 1   
    46    19    80 1   
    47    20    21 1   
    48    20    51 1   
    49    20   119 2   
    50    21    22 1   
    51    21    52 1   
    52    21    81 1   
    53    22    23 1   
    54    22    82 1   
    55    22    83 1   
    56    23    24 ar  
    57    23    32 ar  
    58    24    25 ar  
    59    24    84 1   
    60    25    26 ar  
    61    25    85 1   
    62    26    27 ar  
    63    26    31 ar  
    64    27    28 ar  
    65    27    86 1   
    66    28    29 ar  
    67    28    87 1   
    68    29    30 ar  
    69    29    88 1   
    70    30    31 ar  
    71    30    89 1   
    72    31    32 ar  
    73    32    90 1   
    74    33    34 1   
    75    33    52 1   
    76    33    55 2   
    77    34    35 1   
    78    34    91 1   
    79    34    92 1   
    80    35    36 ar  
    81    35    50 ar  
    82    36    37 ar  
    83    36    93 1   
    84    37    38 1   
    85    37    48 ar  
    86    38    53 1   
    87    38    94 1   
    88    38    95 1   
    89    39    40 1   
    90    39    53 1   
    91    39   118 2   
    92    40    41 1   
    93    40    54 1   
    94    40    96 1   
    95    41    42 1   
    96    41    97 1   
    97    41    98 1   
    98    42    43 1   
    99    42    47 1   
   100    42    99 1   
   101    43    44 1   
   102    43   100 1   
   103    43   101 1   
   104    44    45 1   
   105    44   102 1   
   106    44   103 1   
   107    45    46 1   
   108    45   104 1   
   109    45   105 1   
   110    46    47 1   
   111    46   106 1   
   112    46   107 1   
   113    47   108 1   
   114    47   109 1   
   115    48    49 ar  
   116    48   110 1   
   117    49    50 ar  
   118    49   111 1   
   119    50   112 1   
   120    51   113 1   
   121    52   114 1   
   122    53   115 1   
   123    54   116 1   
@<TRIPOS>SUBSTRUCTURE
     1 JVU         1 TEMP              0 ****  ****    0 ROOT
