@<TRIPOS>MOLECULE
JVY
   47    50     1     0     0
SMALL
No Charge or Current Charge


@<TRIPOS>ATOM
      1 C01          0.7210    -2.0600     0.7640 ca         1 JVY       0.249000
      2 C02          1.7380    -1.0930     0.8250 ca         1 JVY      -0.027000
      3 C03          1.6790     0.1020     0.0830 ca         1 JVY      -0.015000
      4 C04          0.5620     0.3170    -0.7460 ca         1 JVY       0.008000
      5 C05         -0.4780    -0.6320    -0.8470 ca         1 JVY      -0.245500
      6 C06         -0.4060    -1.8300    -0.0770 ca         1 JVY       0.001000
      7 C07          2.7510     1.1110     0.1840 cc         1 JVY      -0.194000
      8 S08         -1.8450    -0.2480    -1.9760 sy         1 JVY       1.151600
      9 N09         -3.1400    -0.1020    -0.9340 n7         1 JVY      -0.905300
     10 O10         -1.6610     1.0810    -2.5590 o          1 JVY      -0.545000
     11 O11         -2.1410    -1.4230    -2.7990 o          1 JVY      -0.545000
     12 C12          4.0790     0.7910     0.2440 cd         1 JVY       0.213300
     13 O13          4.8340     1.9330     0.1780 os         1 JVY      -0.068700
     14 N14          3.9570     3.0570     0.0150 nd         1 JVY      -0.361300
     15 C15          2.7500     2.5170     0.0010 cc         1 JVY       0.295300
     16 C16          1.5100     3.3580    -0.1260 c3         1 JVY      -0.137400
     17 C17          4.8090    -0.5270     0.2500 c3         1 JVY      -0.142400
     18 C18         -2.9770     0.4370     0.4310 c5         1 JVY       0.223500
     19 C19         -2.7090     1.9600     0.3810 c5         1 JVY      -0.095400
     20 C20         -3.0040     2.3690     1.8520 c5         1 JVY      -0.082400
     21 C21         -4.1110     1.3700     2.3300 c5         1 JVY      -0.082400
     22 C22         -4.3650     0.4430     1.1050 c5         1 JVY      -0.095400
     23 N23          0.8480    -3.1760     1.5260 nb         1 JVY      -0.659000
     24 C24         -0.1310    -4.1060     1.4910 ca         1 JVY       0.350900
     25 C25         -1.2790    -3.9610     0.7040 ca         1 JVY      -0.149000
     26 C26         -1.4260    -2.8130    -0.0890 ca         1 JVY      -0.064000
     27 H1           2.5660    -1.2700     1.5030 ha         1 JVY       0.135000
     28 H2           0.5230     1.2170    -1.3510 ha         1 JVY       0.147000
     29 H3          -3.7540     0.4990    -1.4790 hn         1 JVY       0.493000
     30 H4           1.2000     3.4440    -1.1730 hc         1 JVY       0.059033
     31 H5           0.6830     2.9320     0.4530 hc         1 JVY       0.059033
     32 H6           1.6850     4.3720     0.2530 hc         1 JVY       0.059033
     33 H7           5.8230    -0.4140    -0.1490 hc         1 JVY       0.067700
     34 H8           4.8970    -0.9240     1.2680 hc         1 JVY       0.067700
     35 H9           4.2950    -1.2710    -0.3700 hc         1 JVY       0.067700
     36 H10         -2.2370    -0.1110     1.0340 h1         1 JVY       0.063700
     37 H11         -1.6820     2.2020     0.0870 hc         1 JVY       0.057200
     38 H12         -3.3800     2.4770    -0.3160 hc         1 JVY       0.057200
     39 H13         -2.1050     2.2750     2.4730 hc         1 JVY       0.047200
     40 H14         -3.3300     3.4130     1.9240 hc         1 JVY       0.047200
     41 H15         -3.7620     0.7930     3.1940 hc         1 JVY       0.047200
     42 H16         -5.0260     1.8860     2.6430 hc         1 JVY       0.047200
     43 H17         -5.1420     0.8570     0.4510 hc         1 JVY       0.057200
     44 H18         -4.6890    -0.5600     1.4020 hc         1 JVY       0.057200
     45 H19          0.0090    -4.9860     2.1160 h4         1 JVY       0.023100
     46 H20         -2.0450    -4.7300     0.7160 ha         1 JVY       0.128000
     47 H21         -2.3320    -2.7100    -0.6770 ha         1 JVY       0.135000
@<TRIPOS>BOND
     1     1     2 ar  
     2     1     6 ar  
     3     1    23 ar  
     4     2     3 ar  
     5     2    27 1   
     6     3     4 ar  
     7     3     7 1   
     8     4     5 ar  
     9     4    28 1   
    10     5     6 ar  
    11     5     8 1   
    12     6    26 ar  
    13     7    12 2   
    14     7    15 1   
    15     8     9 1   
    16     8    10 2   
    17     8    11 2   
    18     9    18 1   
    19     9    29 1   
    20    12    13 1   
    21    12    17 1   
    22    13    14 1   
    23    14    15 2   
    24    15    16 1   
    25    16    30 1   
    26    16    31 1   
    27    16    32 1   
    28    17    33 1   
    29    17    34 1   
    30    17    35 1   
    31    18    19 1   
    32    18    22 1   
    33    18    36 1   
    34    19    20 1   
    35    19    37 1   
    36    19    38 1   
    37    20    21 1   
    38    20    39 1   
    39    20    40 1   
    40    21    22 1   
    41    21    41 1   
    42    21    42 1   
    43    22    43 1   
    44    22    44 1   
    45    23    24 ar  
    46    24    25 ar  
    47    24    45 1   
    48    25    26 ar  
    49    25    46 1   
    50    26    47 1   
@<TRIPOS>SUBSTRUCTURE
     1 JVY         1 TEMP              0 ****  ****    0 ROOT
