@<TRIPOS>MOLECULE
JVY
   47    50     1     0     0
SMALL
bcc


@<TRIPOS>ATOM
      1 C01          0.8210    -2.2710     0.5460 ca         1 JVY       0.379600
      2 C02          1.9450    -1.4180     0.6140 ca         1 JVY      -0.110300
      3 C03          1.9370    -0.1750     0.0350 ca         1 JVY      -0.015000
      4 C04          0.7670     0.2490    -0.6380 ca         1 JVY      -0.010000
      5 C05         -0.3390    -0.5500    -0.7050 ca         1 JVY      -0.245500
      6 C06         -0.3590    -1.8450    -0.1170 ca         1 JVY      -0.064300
      7 C07          3.0950     0.7120     0.1030 cc         1 JVY      -0.324600
      8 S08         -1.7480     0.0860    -1.5880 sy         1 JVY       1.293200
      9 N09         -2.8800     0.1330    -0.4040 n7         1 JVY      -0.850100
     10 O10         -1.3840     1.4110    -2.0720 o          1 JVY      -0.615800
     11 O11         -2.2030    -0.9000    -2.5580 o          1 JVY      -0.615800
     12 C12          4.4090     0.4020    -0.0730 cd         1 JVY       0.323000
     13 O13          5.1410     1.5000     0.1060 os         1 JVY      -0.113100
     14 N14          4.3340     2.5590     0.4090 nd         1 JVY      -0.361300
     15 C15          3.1160     2.1070     0.4030 cc         1 JVY       0.360600
     16 C16          1.9650     3.0040     0.6960 c3         1 JVY      -0.137400
     17 C17          5.1160    -0.8510    -0.4210 c3         1 JVY      -0.142400
     18 C18         -2.8320     1.1870     0.6100 c5         1 JVY       0.223500
     19 C19         -3.5390     2.4940     0.1970 c5         1 JVY      -0.095400
     20 C20         -4.9000     2.4320     0.8860 c5         1 JVY      -0.082400
     21 C21         -4.5530     1.8200     2.2400 c5         1 JVY      -0.082400
     22 C22         -3.5660     0.7060     1.8840 c5         1 JVY      -0.095400
     23 N23          0.9270    -3.4770     1.1500 nb         1 JVY      -0.659000
     24 C24         -0.1020    -4.2780     1.1200 ca         1 JVY       0.416200
     25 C25         -1.3210    -3.9540     0.4930 ca         1 JVY      -0.232300
     26 C26         -1.4510    -2.7430    -0.1250 ca         1 JVY      -0.082000
     27 H1           2.8080    -1.7740     1.1610 ha         1 JVY       0.153000
     28 H2           0.7580     1.2190    -1.1140 ha         1 JVY       0.165000
     29 H3          -3.8040    -0.1030    -0.7510 hn         1 JVY       0.437800
     30 H4           1.4550     3.3000    -0.2220 hc         1 JVY       0.059033
     31 H5           1.2360     2.5060     1.3330 hc         1 JVY       0.059033
     32 H6           2.2990     3.9110     1.1960 hc         1 JVY       0.059033
     33 H7           5.9610    -0.6520    -1.0790 hc         1 JVY       0.067700
     34 H8           5.4960    -1.3510     0.4700 hc         1 JVY       0.067700
     35 H9           4.4410    -1.5370    -0.9290 hc         1 JVY       0.067700
     36 H10         -1.7780     1.3700     0.8290 h1         1 JVY       0.063700
     37 H11         -2.9760     3.3440     0.5910 hc         1 JVY       0.057200
     38 H12         -3.5910     2.6160    -0.8850 hc         1 JVY       0.057200
     39 H13         -5.3830     3.4070     0.9620 hc         1 JVY       0.047200
     40 H14         -5.5790     1.7720     0.3390 hc         1 JVY       0.047200
     41 H15         -4.0690     2.5730     2.8690 hc         1 JVY       0.047200
     42 H16         -5.4210     1.4490     2.7860 hc         1 JVY       0.047200
     43 H17         -4.1080    -0.2170     1.6630 hc         1 JVY       0.057200
     44 H18         -2.8690     0.4780     2.6900 hc         1 JVY       0.057200
     45 H19          0.0090    -5.2380     1.6130 h4         1 JVY       0.023100
     46 H20         -2.1370    -4.6610     0.5060 ha         1 JVY       0.146000
     47 H21         -2.3830    -2.4890    -0.6060 ha         1 JVY       0.153000
@<TRIPOS>BOND
     1     1     2 ar  
     2     1     6 ar  
     3     1    23 ar  
     4     2     3 ar  
     5     2    27 1   
     6     3     4 ar  
     7     3     7 1   
     8     4     5 ar  
     9     4    28 1   
    10     5     6 ar  
    11     5     8 1   
    12     6    26 ar  
    13     7    12 2   
    14     7    15 1   
    15     8     9 1   
    16     8    10 2   
    17     8    11 2   
    18     9    18 1   
    19     9    29 1   
    20    12    13 1   
    21    12    17 1   
    22    13    14 1   
    23    14    15 2   
    24    15    16 1   
    25    16    30 1   
    26    16    31 1   
    27    16    32 1   
    28    17    33 1   
    29    17    34 1   
    30    17    35 1   
    31    18    19 1   
    32    18    22 1   
    33    18    36 1   
    34    19    20 1   
    35    19    37 1   
    36    19    38 1   
    37    20    21 1   
    38    20    39 1   
    39    20    40 1   
    40    21    22 1   
    41    21    41 1   
    42    21    42 1   
    43    22    43 1   
    44    22    44 1   
    45    23    24 ar  
    46    24    25 ar  
    47    24    45 1   
    48    25    26 ar  
    49    25    46 1   
    50    26    47 1   
@<TRIPOS>SUBSTRUCTURE
     1 JVY         1 TEMP              0 ****  ****    0 ROOT
