@<TRIPOS>MOLECULE
JVZ
   43    46     1     0     0
SMALL
No Charge or Current Charge


@<TRIPOS>ATOM
      1 C02         -0.8790    -0.4580     0.1400 c3         1 JVZ       0.148300
      2 C03          0.4890    -0.6430    -0.5620 c3         1 JVZ       0.129600
      3 C05          2.8460    -0.1110    -0.0540 ca         1 JVZ       0.134100
      4 C06          3.7680     0.4460     0.8520 ca         1 JVZ      -0.126000
      5 C07          5.1340     0.4430     0.5310 ca         1 JVZ      -0.052300
      6 C08          6.2590     0.9970     1.3640 c5         1 JVZ      -0.035100
      7 C09          7.4950     0.2870     0.6900 c5         1 JVZ      -0.078400
      8 C10          7.0750     0.0180    -0.8060 c5         1 JVZ      -0.027100
      9 C11          5.5810    -0.0930    -0.6580 ca         1 JVZ      -0.121300
     10 C12          4.6840    -0.6520    -1.5810 ca         1 JVZ      -0.061000
     11 C13          3.3080    -0.6620    -1.2760 ca         1 JVZ      -0.202000
     12 C14         -2.0530    -0.9490    -0.7440 c3         1 JVZ       0.044600
     13 C16         -4.3040     0.0360    -0.2090 ca         1 JVZ      -0.068200
     14 C17         -4.2820     1.2360    -0.9360 ca         1 JVZ      -0.114000
     15 C18         -5.4290     2.0540    -0.8820 ca         1 JVZ      -0.092000
     16 C19         -6.5500     1.6600    -0.1130 ca         1 JVZ      -0.136000
     17 C20         -6.5320     0.4450     0.6080 ca         1 JVZ      -0.045000
     18 C21         -5.3800    -0.3540     0.5410 ca         1 JVZ       0.067400
     19 C23         -3.9050    -1.9140     0.7840 cc         1 JVZ       0.417700
     20 N15         -3.3640    -0.9450    -0.0640 na         1 JVZ      -0.178600
     21 N22         -5.1540    -1.5750     1.1730 nd         1 JVZ      -0.567100
     22 O01         -1.0580     0.9280     0.4860 oh         1 JVZ      -0.621000
     23 O04          1.5110    -0.0940     0.2930 os         1 JVZ      -0.334100
     24 H021        -0.8630    -1.0730     1.0520 h1         1 JVZ       0.096700
     25 H031         0.6650    -1.7120    -0.7390 h1         1 JVZ       0.036700
     26 H032         0.4760    -0.1270    -1.5310 h1         1 JVZ       0.036700
     27 H061         3.4230     0.8730     1.7900 ha         1 JVZ       0.132000
     28 H081         6.3220     2.0870     1.2760 hc         1 JVZ       0.055200
     29 H082         6.1700     0.7510     2.4290 hc         1 JVZ       0.055200
     30 H091         8.4120     0.8820     0.7660 hc         1 JVZ       0.046200
     31 H092         7.6970    -0.6650     1.1950 hc         1 JVZ       0.046200
     32 H101         7.3510     0.8540    -1.4590 hc         1 JVZ       0.051200
     33 H102         7.5390    -0.8890    -1.2100 hc         1 JVZ       0.051200
     34 H121         5.0450    -1.0700    -2.5180 ha         1 JVZ       0.112000
     35 H131         2.6210    -1.0970    -1.9950 ha         1 JVZ       0.111000
     36 H141        -2.1080    -0.3370    -1.6530 h1         1 JVZ       0.062700
     37 H142        -1.8450    -1.9790    -1.0630 h1         1 JVZ       0.062700
     38 H171        -3.4140     1.5350    -1.5180 ha         1 JVZ       0.108000
     39 H181        -5.4510     2.9930    -1.4310 ha         1 JVZ       0.111000
     40 H191        -7.4320     2.2960    -0.0760 ha         1 JVZ       0.114000
     41 H201        -7.3870     0.1360     1.2030 ha         1 JVZ       0.128000
     42 H231        -3.3640    -2.8110     1.0620 h5         1 JVZ       0.058800
     43 H011        -0.1830     1.2420     0.8070 ho         1 JVZ       0.440000
@<TRIPOS>BOND
     1     1     2 1   
     2     1    12 1   
     3     1    22 1   
     4     1    24 1   
     5     2    23 1   
     6     2    25 1   
     7     2    26 1   
     8     3     4 ar  
     9     3    11 ar  
    10     3    23 1   
    11     4     5 ar  
    12     4    27 1   
    13     5     6 1   
    14     5     9 ar  
    15     6     7 1   
    16     6    28 1   
    17     6    29 1   
    18     7     8 1   
    19     7    30 1   
    20     7    31 1   
    21     8     9 1   
    22     8    32 1   
    23     8    33 1   
    24     9    10 ar  
    25    10    11 ar  
    26    10    34 1   
    27    11    35 1   
    28    12    20 1   
    29    12    36 1   
    30    12    37 1   
    31    13    14 ar  
    32    13    18 ar  
    33    13    20 1   
    34    14    15 ar  
    35    14    38 1   
    36    15    16 ar  
    37    15    39 1   
    38    16    17 ar  
    39    16    40 1   
    40    17    18 ar  
    41    17    41 1   
    42    18    21 1   
    43    19    20 1   
    44    19    21 2   
    45    19    42 1   
    46    22    43 1   
@<TRIPOS>SUBSTRUCTURE
     1 JVZ         1 TEMP              0 ****  ****    0 ROOT
