@<TRIPOS>MOLECULE
JVZ
   43    46     1     0     0
SMALL
bcc


@<TRIPOS>ATOM
      1 C02         -0.8540    -0.4440     0.1770 c3         1 JVZ       0.125100
      2 C03          0.4950    -0.5790    -0.5070 c3         1 JVZ       0.106400
      3 C05          2.7760    -0.1300    -0.0090 ca         1 JVZ       0.134100
      4 C06          3.7000     0.3610     0.9180 ca         1 JVZ      -0.144000
      5 C07          5.0400     0.3790     0.5870 ca         1 JVZ      -0.052300
      6 C08          6.2020     0.8700     1.4070 c5         1 JVZ      -0.035100
      7 C09          7.4150     0.2440     0.6960 c5         1 JVZ      -0.078400
      8 C10          6.9760     0.0650    -0.7680 c5         1 JVZ      -0.027100
      9 C11          5.4830    -0.0760    -0.6550 ca         1 JVZ      -0.121300
     10 C12          4.5660    -0.5550    -1.5710 ca         1 JVZ      -0.079000
     11 C13          3.2080    -0.5860    -1.2530 ca         1 JVZ      -0.220000
     12 C14         -1.9340    -1.0640    -0.7130 c3         1 JVZ       0.015300
     13 C16         -4.1520     0.0450    -0.2390 ca         1 JVZ      -0.068200
     14 C17         -4.1500     1.2190    -0.9840 ca         1 JVZ      -0.132000
     15 C18         -5.2720     2.0220    -0.8820 ca         1 JVZ      -0.110000
     16 C19         -6.3570     1.6690    -0.0640 ca         1 JVZ      -0.154000
     17 C20         -6.3510     0.5000     0.6730 ca         1 JVZ      -0.063000
     18 C21         -5.2300    -0.3260     0.5820 ca         1 JVZ       0.067400
     19 C23         -3.7890    -1.8710     0.7500 cc         1 JVZ       0.417700
     20 N15         -3.2440    -0.9770    -0.1150 na         1 JVZ      -0.149300
     21 N22         -4.9670    -1.5320     1.1880 nd         1 JVZ      -0.567100
     22 O01         -1.1570     0.8780     0.5350 oh         1 JVZ      -0.558800
     23 O04          1.4840    -0.1290     0.3920 os         1 JVZ      -0.310900
     24 H021        -0.8270    -1.0090     1.1140 h1         1 JVZ       0.096700
     25 H031         0.6630    -1.6270    -0.7830 h1         1 JVZ       0.036700
     26 H032         0.5100     0.0130    -1.4320 h1         1 JVZ       0.036700
     27 H061         3.3540     0.7130     1.8840 ha         1 JVZ       0.150000
     28 H081         6.2480     1.9630     1.3700 hc         1 JVZ       0.055200
     29 H082         6.1340     0.5930     2.4600 hc         1 JVZ       0.055200
     30 H091         8.3170     0.8480     0.7950 hc         1 JVZ       0.046200
     31 H092         7.6250    -0.7340     1.1330 hc         1 JVZ       0.046200
     32 H101         7.2340     0.9470    -1.3640 hc         1 JVZ       0.051200
     33 H102         7.4550    -0.7900    -1.2470 hc         1 JVZ       0.051200
     34 H121         4.8870    -0.9180    -2.5400 ha         1 JVZ       0.130000
     35 H131         2.5110    -0.9750    -1.9830 ha         1 JVZ       0.129000
     36 H141        -1.9680    -0.5730    -1.6880 h1         1 JVZ       0.062700
     37 H142        -1.7070    -2.1140    -0.8970 h1         1 JVZ       0.062700
     38 H171        -3.3200     1.5010    -1.6200 ha         1 JVZ       0.126000
     39 H181        -5.3130     2.9450    -1.4450 ha         1 JVZ       0.129000
     40 H191        -7.2130     2.3300    -0.0130 ha         1 JVZ       0.132000
     41 H201        -7.1890     0.2280     1.3020 ha         1 JVZ       0.146000
     42 H231        -3.2640    -2.7770     1.0180 h5         1 JVZ       0.058800
     43 H011        -1.0930     1.4420    -0.2440 ho         1 JVZ       0.401000
@<TRIPOS>BOND
     1     1     2 1   
     2     1    12 1   
     3     1    22 1   
     4     1    24 1   
     5     2    23 1   
     6     2    25 1   
     7     2    26 1   
     8     3     4 ar  
     9     3    11 ar  
    10     3    23 1   
    11     4     5 ar  
    12     4    27 1   
    13     5     6 1   
    14     5     9 ar  
    15     6     7 1   
    16     6    28 1   
    17     6    29 1   
    18     7     8 1   
    19     7    30 1   
    20     7    31 1   
    21     8     9 1   
    22     8    32 1   
    23     8    33 1   
    24     9    10 ar  
    25    10    11 ar  
    26    10    34 1   
    27    11    35 1   
    28    12    20 1   
    29    12    36 1   
    30    12    37 1   
    31    13    14 ar  
    32    13    18 ar  
    33    13    20 1   
    34    14    15 ar  
    35    14    38 1   
    36    15    16 ar  
    37    15    39 1   
    38    16    17 ar  
    39    16    40 1   
    40    17    18 ar  
    41    17    41 1   
    42    18    21 1   
    43    19    20 1   
    44    19    21 2   
    45    19    42 1   
    46    22    43 1   
@<TRIPOS>SUBSTRUCTURE
     1 JVZ         1 TEMP              0 ****  ****    0 ROOT
