@<TRIPOS>MOLECULE
JW2
   35    36     1     0     0
SMALL
No Charge or Current Charge


@<TRIPOS>ATOM
      1 C2           1.3590    -0.3770     0.2220 c          1 JW2       0.523100
      2 C4           3.7930    -0.6520     0.0260 c5         1 JW2       0.099700
      3 C5           4.2100     0.5330    -0.8780 c5         1 JW2      -0.094900
      4 C6           5.7000     0.1860    -1.1740 c5         1 JW2      -0.079900
      5 C7           6.1750    -0.6550     0.0600 c5         1 JW2      -0.079900
      6 C8           4.9630    -0.6440     1.0340 c5         1 JW2      -0.094900
      7 C12         -2.3730     0.4290     1.2100 c3         1 JW2       0.051700
      8 C15         -6.0330     0.2190     0.0790 ca         1 JW2      -0.067000
      9 C16         -5.8500    -0.4250    -1.1550 ca         1 JW2      -0.163000
     10 C17         -4.5490    -0.7620    -1.5650 ca         1 JW2       0.349900
     11 O1           1.1780    -0.9130    -0.8720 o          1 JW2      -0.603100
     12 N3           2.6190    -0.2010     0.7800 ns         1 JW2      -0.470900
     13 C9           0.1480     0.1760     1.1290 c          1 JW2       0.516100
     14 O10          0.3150     0.7090     2.2260 o          1 JW2      -0.620100
     15 N11         -1.1100     0.0090     0.5800 ns         1 JW2      -0.464900
     16 C13         -3.6240     0.1300     0.3750 ca         1 JW2       0.331300
     17 C14         -4.8960     0.4990     0.8540 ca         1 JW2      -0.154000
     18 N18         -3.4500    -0.4930    -0.8200 nb         1 JW2      -0.682000
     19 H1           3.6760    -1.6070    -0.5070 h1         1 JW2       0.080700
     20 H2           3.6070     0.6010    -1.7910 hc         1 JW2       0.050950
     21 H3           4.1300     1.4980    -0.3620 hc         1 JW2       0.050950
     22 H4           5.7930    -0.3980    -2.0970 hc         1 JW2       0.045700
     23 H5           6.3020     1.0920    -1.3110 hc         1 JW2       0.045700
     24 H6           6.4220    -1.6790    -0.2430 hc         1 JW2       0.045700
     25 H7           7.0750    -0.2370     0.5250 hc         1 JW2       0.045700
     26 H8           4.9730     0.2560     1.6630 hc         1 JW2       0.050950
     27 H9           4.9520    -1.5130     1.7010 hc         1 JW2       0.050950
     28 H10         -2.4660    -0.0780     2.1790 h1         1 JW2       0.064700
     29 H11         -2.3260     1.5090     1.4000 h1         1 JW2       0.064700
     30 H13         -6.6980    -0.6630    -1.7900 ha         1 JW2       0.127000
     31 H14         -4.3790    -1.2620    -2.5180 h4         1 JW2       0.023100
     32 H15          2.6600     0.2480     1.6900 hn         1 JW2       0.338500
     33 H16         -1.1600    -0.4420    -0.3310 hn         1 JW2       0.369500
     34 H17         -4.9950     0.9960     1.8150 ha         1 JW2       0.127000
     35 H12         -7.0280     0.4930     0.4250 ha         1 JW2       0.122000
@<TRIPOS>BOND
     1     1    11 2   
     2     1    12 1   
     3     1    13 1   
     4     2     3 1   
     5     2     6 1   
     6     2    12 1   
     7     2    19 1   
     8     3     4 1   
     9     3    20 1   
    10     3    21 1   
    11     4     5 1   
    12     4    22 1   
    13     4    23 1   
    14     5     6 1   
    15     5    24 1   
    16     5    25 1   
    17     6    26 1   
    18     6    27 1   
    19     7    15 1   
    20     7    16 1   
    21     7    28 1   
    22     7    29 1   
    23     8     9 ar  
    24     8    17 ar  
    25     8    35 1   
    26     9    10 ar  
    27     9    30 1   
    28    10    18 ar  
    29    10    31 1   
    30    12    32 1   
    31    13    14 2   
    32    13    15 1   
    33    15    33 1   
    34    16    17 ar  
    35    16    18 ar  
    36    17    34 1   
@<TRIPOS>SUBSTRUCTURE
     1 JW2         1 TEMP              0 ****  ****    0 ROOT
