@<TRIPOS>MOLECULE
JW2
   35    36     1     0     0
SMALL
bcc


@<TRIPOS>ATOM
      1 C2           1.2040     0.0260    -0.1690 c          1 JW2       0.590100
      2 C4           3.6220    -0.4120    -0.2010 c5         1 JW2       0.099700
      3 C5           4.5400     0.6680    -0.8180 c5         1 JW2      -0.094900
      4 C6           5.9820     0.2260    -0.4950 c5         1 JW2      -0.079900
      5 C7           5.8510    -1.1800     0.1070 c5         1 JW2      -0.079900
      6 C8           4.5040    -1.1350     0.8160 c5         1 JW2      -0.094900
      7 C12         -2.2990     1.0470     0.8000 c3         1 JW2       0.051700
      8 C15         -5.7720    -0.4290     0.6280 ca         1 JW2      -0.085000
      9 C16         -5.6950    -1.0360    -0.6180 ca         1 JW2      -0.246300
     10 C17         -4.5050    -0.9380    -1.3200 ca         1 JW2       0.415200
     11 O1           0.9330    -0.5090    -1.2350 o          1 JW2      -0.603100
     12 N3           2.4090     0.1140     0.3810 ns         1 JW2      -0.537900
     13 C9           0.1070     0.6790     0.6910 c          1 JW2       0.583100
     14 O10          0.3730     1.2680     1.7290 o          1 JW2      -0.620100
     15 N11         -1.1090     0.5180     0.1860 ns         1 JW2      -0.531900
     16 C13         -3.5160     0.2920     0.3310 ca         1 JW2       0.396600
     17 C14         -4.6640     0.2450     1.1140 ca         1 JW2      -0.237300
     18 N18         -3.4420    -0.2880    -0.8600 nb         1 JW2      -0.682000
     19 H1           3.3270    -1.1210    -0.9760 h1         1 JW2       0.080700
     20 H2           4.3630     0.7580    -1.8900 hc         1 JW2       0.050950
     21 H3           4.3180     1.6430    -0.3800 hc         1 JW2       0.050950
     22 H4           6.6330     0.2430    -1.3690 hc         1 JW2       0.045700
     23 H5           6.4220     0.8990     0.2430 hc         1 JW2       0.045700
     24 H6           5.8230    -1.9310    -0.6870 hc         1 JW2       0.045700
     25 H7           6.6770    -1.4350     0.7710 hc         1 JW2       0.045700
     26 H8           4.5820    -0.5360     1.7300 hc         1 JW2       0.050950
     27 H9           4.1110    -2.1140     1.0920 hc         1 JW2       0.050950
     28 H10         -2.2140     0.9920     1.8850 h1         1 JW2       0.064700
     29 H11         -2.4220     2.1070     0.5480 h1         1 JW2       0.064700
     30 H13         -6.5330    -1.5780    -1.0340 ha         1 JW2       0.145000
     31 H14         -4.4020    -1.4010    -2.2940 h4         1 JW2       0.023100
     32 H15          2.4800     0.6070     1.2600 hn         1 JW2       0.338500
     33 H16         -1.2140     0.0540    -0.7060 hn         1 JW2       0.369500
     34 H17         -4.6850     0.7240     2.0840 ha         1 JW2       0.145000
     35 H12         -6.6780    -0.4850     1.2160 ha         1 JW2       0.140000
@<TRIPOS>BOND
     1     1    11 2   
     2     1    12 1   
     3     1    13 1   
     4     2     3 1   
     5     2     6 1   
     6     2    12 1   
     7     2    19 1   
     8     3     4 1   
     9     3    20 1   
    10     3    21 1   
    11     4     5 1   
    12     4    22 1   
    13     4    23 1   
    14     5     6 1   
    15     5    24 1   
    16     5    25 1   
    17     6    26 1   
    18     6    27 1   
    19     7    15 1   
    20     7    16 1   
    21     7    28 1   
    22     7    29 1   
    23     8     9 ar  
    24     8    17 ar  
    25     8    35 1   
    26     9    10 ar  
    27     9    30 1   
    28    10    18 ar  
    29    10    31 1   
    30    12    32 1   
    31    13    14 2   
    32    13    15 1   
    33    15    33 1   
    34    16    17 ar  
    35    16    18 ar  
    36    17    34 1   
@<TRIPOS>SUBSTRUCTURE
     1 JW2         1 TEMP              0 ****  ****    0 ROOT
