@<TRIPOS>MOLECULE
JW4
   52    57     1     0     0
SMALL
abcg2


@<TRIPOS>ATOM
      1 C01         -2.0350    -0.2140     0.1310 ca         1 JW4       0.014000
      2 C02         -1.8030    -1.5830     0.2300 ca         1 JW4      -0.103000
      3 C03         -0.5050    -2.0190     0.0230 ca         1 JW4      -0.081200
      4 C04          0.5540    -1.1510    -0.2850 ca         1 JW4       0.083400
      5 C05          0.3220     0.2220    -0.3840 cp         1 JW4       0.020000
      6 C06         -0.9750     0.6630    -0.1640 ca         1 JW4      -0.118000
      7 C07          1.4200     1.1630    -0.6980 cp         1 JW4      -0.016000
      8 C08         -3.3830     0.3230     0.3310 cc         1 JW4      -0.183000
      9 C09         -4.2910     0.0530     1.4000 cc         1 JW4       0.290300
     10 N10         -5.3890     0.7350     1.2610 nd         1 JW4      -0.365300
     11 O11         -5.2510     1.4590     0.1120 os         1 JW4      -0.071700
     12 C12         -4.0610     1.2150    -0.4410 cd         1 JW4       0.205300
     13 C13         -3.7350     1.9030    -1.7100 c3         1 JW4      -0.140400
     14 C14         -4.0930    -0.8540     2.5620 c3         1 JW4      -0.133400
     15 N15          0.0650    -3.2640     0.0410 na         1 JW4      -0.315600
     16 C16          1.3880    -3.1130    -0.2450 cc         1 JW4       0.454800
     17 N17          1.7160    -1.8620    -0.4440 nd         1 JW4      -0.565100
     18 C18          2.3330    -4.2290    -0.3120 cx         1 JW4      -0.155000
     19 C19          1.8870    -5.5980    -0.7570 cx         1 JW4      -0.120900
     20 C20          2.2470    -5.3720     0.6690 cx         1 JW4      -0.120900
     21 C21          1.9540     1.9840     0.3330 ca         1 JW4      -0.059000
     22 C22          2.9980     2.8970     0.0400 ca         1 JW4       0.262000
     23 C23          3.4940     2.9640    -1.2780 ca         1 JW4      -0.078000
     24 C24          2.9700     2.1590    -2.2490 ca         1 JW4      -0.104000
     25 C25          1.9250     1.2440    -1.9790 ca         1 JW4      -0.041300
     26 C26          1.5050     1.9310     1.6740 ca         1 JW4      -0.058000
     27 C27          2.0690     2.7560     2.6050 ca         1 JW4      -0.171000
     28 C28          3.0920     3.6380     2.2000 ca         1 JW4       0.348900
     29 N29          3.5440     3.7100     0.9780 nb         1 JW4      -0.662000
     30 C30          1.3880     0.3900    -3.0900 c3         1 JW4      -0.050800
     31 H1          -2.6070    -2.2780     0.4370 ha         1 JW4       0.121000
     32 H2          -1.1740     1.7270    -0.2050 ha         1 JW4       0.123000
     33 H3          -4.5890     1.9000    -2.3880 hc         1 JW4       0.065700
     34 H4          -3.4490     2.9420    -1.5390 hc         1 JW4       0.065700
     35 H5          -2.9040     1.4050    -2.2050 hc         1 JW4       0.065700
     36 H6          -3.0940    -0.7310     2.9800 hc         1 JW4       0.056367
     37 H7          -4.8260    -0.6530     3.3410 hc         1 JW4       0.056367
     38 H8          -4.1940    -1.8990     2.2640 hc         1 JW4       0.056367
     39 H9          -0.4140    -4.1300     0.2330 hn         1 JW4       0.357000
     40 H11          3.3260    -3.9170    -0.6100 hc         1 JW4       0.116700
     41 H12          0.8440    -5.7360    -1.0100 hc         1 JW4       0.076700
     42 H13          2.5720    -6.1540    -1.3830 hc         1 JW4       0.076700
     43 H14          3.1830    -5.7690     1.0370 hc         1 JW4       0.076700
     44 H15          1.4530    -5.3470     1.4050 hc         1 JW4       0.076700
     45 H16          4.2920     3.6620    -1.5000 ha         1 JW4       0.131000
     46 H17          3.3570     2.2210    -3.2590 ha         1 JW4       0.114000
     47 H18          0.7210     1.2400     1.9560 ha         1 JW4       0.125000
     48 H19          1.7490     2.7400     3.6370 ha         1 JW4       0.121000
     49 H20          3.5450     4.3020     2.9290 h4         1 JW4       0.016100
     50 H21          1.7020    -0.6490    -2.9740 hc         1 JW4       0.046367
     51 H22          0.2970     0.3940    -3.1110 hc         1 JW4       0.046367
     52 H23          1.7440     0.7370    -4.0590 hc         1 JW4       0.046367
@<TRIPOS>BOND
     1     1     2 ar  
     2     1     6 ar  
     3     1     8 1   
     4     2     3 ar  
     5     2    31 1   
     6     3     4 ar  
     7     3    15 1   
     8     4     5 ar  
     9     4    17 1   
    10     5     6 ar  
    11     5     7 1   
    12     6    32 1   
    13     7    21 ar  
    14     7    25 ar  
    15     8     9 1   
    16     8    12 2   
    17     9    10 2   
    18     9    14 1   
    19    10    11 1   
    20    11    12 1   
    21    12    13 1   
    22    13    33 1   
    23    13    34 1   
    24    13    35 1   
    25    14    36 1   
    26    14    37 1   
    27    14    38 1   
    28    15    16 1   
    29    15    39 1   
    30    16    17 2   
    31    16    18 1   
    32    18    19 1   
    33    18    20 1   
    34    18    40 1   
    35    19    20 1   
    36    19    41 1   
    37    19    42 1   
    38    20    43 1   
    39    20    44 1   
    40    21    22 ar  
    41    21    26 ar  
    42    22    23 ar  
    43    22    29 ar  
    44    23    24 ar  
    45    23    45 1   
    46    24    25 ar  
    47    24    46 1   
    48    25    30 1   
    49    26    27 ar  
    50    26    47 1   
    51    27    28 ar  
    52    27    48 1   
    53    28    29 ar  
    54    28    49 1   
    55    30    50 1   
    56    30    51 1   
    57    30    52 1   
@<TRIPOS>SUBSTRUCTURE
     1 JW4         1 TEMP              0 ****  ****    0 ROOT
