@<TRIPOS>MOLECULE
JW4
   52    57     1     0     0
SMALL
No Charge or Current Charge


@<TRIPOS>ATOM
      1 C01         -2.1210    -0.1890     0.0800 ca         1 JW4       0.014000
      2 C02         -1.7630    -1.5310     0.3350 ca         1 JW4      -0.103000
      3 C03         -0.4190    -1.9010     0.2140 ca         1 JW4      -0.081200
      4 C04          0.5850    -1.0380    -0.1310 ca         1 JW4       0.083400
      5 C05          0.2660     0.3180    -0.3810 cp         1 JW4       0.020000
      6 C06         -1.0920     0.7200    -0.2720 ca         1 JW4      -0.118000
      7 C07          1.3240     1.3080    -0.7410 cp         1 JW4      -0.016000
      8 C08         -3.5220     0.2560     0.1980 cc         1 JW4      -0.183000
      9 C09         -4.6130    -0.2410     0.9540 cc         1 JW4       0.290300
     10 N10         -5.7670     0.3340     0.6640 nd         1 JW4      -0.365300
     11 O11         -5.4380     1.2540    -0.3870 os         1 JW4      -0.071700
     12 C12         -4.0990     1.1540    -0.6570 cd         1 JW4       0.205300
     13 C13         -3.5710     1.9090    -1.8490 c3         1 JW4      -0.140400
     14 C14         -4.4990    -1.2780     2.0370 c3         1 JW4      -0.133400
     15 N15          0.1400    -3.1250     0.3970 na         1 JW4      -0.315600
     16 C16          1.5040    -3.0090     0.1640 cc         1 JW4       0.454800
     17 N17          1.7970    -1.7370    -0.1610 nd         1 JW4      -0.565100
     18 C18          2.4900    -4.1060     0.2570 cx         1 JW4      -0.155000
     19 C19          2.1110    -5.5170    -0.1450 cx         1 JW4      -0.120900
     20 C20          2.3420    -5.1840     1.3120 cx         1 JW4      -0.120900
     21 C21          2.2180     1.8220     0.2430 ca         1 JW4      -0.059000
     22 C22          3.2240     2.7640    -0.1080 ca         1 JW4       0.262000
     23 C23          3.3170     3.1830    -1.4450 ca         1 JW4      -0.078000
     24 C24          2.4420     2.6890    -2.4230 ca         1 JW4      -0.104000
     25 C25          1.4480     1.7550    -2.0850 ca         1 JW4      -0.041300
     26 C26          2.1270     1.4170     1.5940 ca         1 JW4      -0.058000
     27 C27          3.0300     1.9520     2.5240 ca         1 JW4      -0.171000
     28 C28          3.9930     2.8720     2.0890 ca         1 JW4       0.348900
     29 N29          4.0900     3.2730     0.8020 nb         1 JW4      -0.662000
     30 C30          0.5250     1.2390    -3.1840 c3         1 JW4      -0.050800
     31 H1          -2.5060    -2.2810     0.5830 ha         1 JW4       0.121000
     32 H2          -1.3220     1.7680    -0.4270 ha         1 JW4       0.123000
     33 H3          -4.3850     2.1800    -2.5320 hc         1 JW4       0.065700
     34 H4          -3.0750     2.8370    -1.5420 hc         1 JW4       0.065700
     35 H5          -2.8570     1.3030    -2.4180 hc         1 JW4       0.065700
     36 H6          -3.5320    -1.2130     2.5480 hc         1 JW4       0.056367
     37 H7          -5.2790    -1.1400     2.7940 hc         1 JW4       0.056367
     38 H8          -4.6110    -2.2870     1.6240 hc         1 JW4       0.056367
     39 H9          -0.3370    -3.9780     0.6570 hn         1 JW4       0.357000
     40 H11          3.5000    -3.7790     0.0230 hc         1 JW4       0.116700
     41 H12          1.0900    -5.7090    -0.4680 hc         1 JW4       0.076700
     42 H13          2.8640    -6.1170    -0.6520 hc         1 JW4       0.076700
     43 H14          3.2480    -5.5610     1.7790 hc         1 JW4       0.076700
     44 H15          1.4760    -5.1510     1.9690 hc         1 JW4       0.076700
     45 H16          4.0800     3.9040    -1.7260 ha         1 JW4       0.131000
     46 H17          2.5410     3.0360    -3.4490 ha         1 JW4       0.114000
     47 H18          1.3760     0.7050     1.9270 ha         1 JW4       0.125000
     48 H19          2.9880     1.6620     3.5700 ha         1 JW4       0.121000
     49 H20          4.7070     3.3040     2.7890 h4         1 JW4       0.016100
     50 H21          0.4150     0.1490    -3.1340 hc         1 JW4       0.046367
     51 H22         -0.4730     1.6830    -3.0960 hc         1 JW4       0.046367
     52 H23          0.9060     1.4790    -4.1830 hc         1 JW4       0.046367
@<TRIPOS>BOND
     1     1     2 ar  
     2     1     6 ar  
     3     1     8 1   
     4     2     3 ar  
     5     2    31 1   
     6     3     4 ar  
     7     3    15 1   
     8     4     5 ar  
     9     4    17 1   
    10     5     6 ar  
    11     5     7 1   
    12     6    32 1   
    13     7    21 ar  
    14     7    25 ar  
    15     8     9 1   
    16     8    12 2   
    17     9    10 2   
    18     9    14 1   
    19    10    11 1   
    20    11    12 1   
    21    12    13 1   
    22    13    33 1   
    23    13    34 1   
    24    13    35 1   
    25    14    36 1   
    26    14    37 1   
    27    14    38 1   
    28    15    16 1   
    29    15    39 1   
    30    16    17 2   
    31    16    18 1   
    32    18    19 1   
    33    18    20 1   
    34    18    40 1   
    35    19    20 1   
    36    19    41 1   
    37    19    42 1   
    38    20    43 1   
    39    20    44 1   
    40    21    22 ar  
    41    21    26 ar  
    42    22    23 ar  
    43    22    29 ar  
    44    23    24 ar  
    45    23    45 1   
    46    24    25 ar  
    47    24    46 1   
    48    25    30 1   
    49    26    27 ar  
    50    26    47 1   
    51    27    28 ar  
    52    27    48 1   
    53    28    29 ar  
    54    28    49 1   
    55    30    50 1   
    56    30    51 1   
    57    30    52 1   
@<TRIPOS>SUBSTRUCTURE
     1 JW4         1 TEMP              0 ****  ****    0 ROOT
