@<TRIPOS>MOLECULE
JW6
   97    99     1     0     0
SMALL
No Charge or Current Charge


@<TRIPOS>ATOM
      1 N1           7.8620   -11.6140     5.8230 nv         1 JW6      -1.042200
      2 C7          -1.6000   -14.6110     3.9870 c          1 JW6       0.582100
      3 C8          -2.1310   -13.5650     2.9560 c3         1 JW6       0.029700
      4 N2           6.7870   -10.9510     3.9900 n2         1 JW6      -0.911100
      5 C9          -2.7390   -14.2490     1.7000 c3         1 JW6      -0.079400
      6 O1           3.1260    -6.1170    -1.6080 oh         1 JW6      -0.536100
      7 C1           4.9760   -12.9780     4.8460 c3         1 JW6       0.152500
      8 C5           1.5830   -14.6610     6.0630 c3         1 JW6      -0.100400
      9 C6           0.3750   -15.3330     5.3760 c3         1 JW6       0.100000
     10 N3          -0.3020   -14.4420     4.4280 ns         1 JW6      -0.500900
     11 C4           2.7360   -14.3020     5.0970 c3         1 JW6      -0.075400
     12 C3           3.9260   -13.6050     5.8040 c3         1 JW6      -0.077400
     13 C2           6.7900   -11.2690     5.1810 c2         1 JW6       0.801100
     14 N4          -6.1130   -10.6580     0.3980 n8         1 JW6      -0.994200
     15 N            5.8880   -12.0990     5.6610 nu         1 JW6      -0.979400
     16 C            5.7400   -14.0480     3.9750 c          1 JW6       0.569100
     17 O            5.2000   -14.7370     3.1190 o          1 JW6      -0.585100
     18 C10         -3.2770   -13.2880     0.6080 c3         1 JW6      -0.072400
     19 C11         -4.4490   -12.3900     1.0680 c3         1 JW6      -0.085400
     20 C12         -4.9870   -11.4890    -0.0620 c3         1 JW6       0.150800
     21 C13         -1.1400   -11.2260     2.8120 c          1 JW6       0.591100
     22 C14         -0.0770   -10.3540     2.0810 c3         1 JW6       0.023700
     23 C15         -0.7280    -9.2420     1.2240 c3         1 JW6      -0.037100
     24 C16          0.3040    -8.4070     0.4690 ca         1 JW6      -0.104300
     25 C17          1.1470    -7.5220     1.1720 ca         1 JW6      -0.098000
     26 C18          2.1200    -6.7630     0.4970 ca         1 JW6       0.149000
     27 C19          2.2330    -6.8850    -0.9130 ca         1 JW6       0.142100
     28 C20          1.3970    -7.7680    -1.6150 ca         1 JW6      -0.135000
     29 C21          0.4370    -8.5290    -0.9270 ca         1 JW6      -0.091000
     30 C22          2.0780   -11.6140     1.6770 c          1 JW6       0.613100
     31 C23          2.9340   -12.3030     0.6110 c3         1 JW6      -0.108100
     32 C24          4.2280   -11.5360     0.3580 ca         1 JW6      -0.076300
     33 C25          5.4720   -12.1620     0.5640 ca         1 JW6      -0.076000
     34 C26          6.6770   -11.4530     0.3780 ca         1 JW6      -0.097300
     35 C27          8.0170   -12.1340     0.6340 c3         1 JW6       0.147300
     36 C28          8.3630   -14.2270     2.0080 c          1 JW6       0.588100
     37 C29          8.0510   -14.9030     3.3700 c3         1 JW6       0.016000
     38 C30          6.6260   -10.1100    -0.0410 ca         1 JW6      -0.093000
     39 C31          5.3870    -9.4850    -0.2660 ca         1 JW6      -0.110000
     40 C32          4.1910   -10.1940    -0.0650 ca         1 JW6      -0.093000
     41 N5          -1.0930   -12.5820     2.5530 ns         1 JW6      -0.494900
     42 N6           2.9450    -5.9220     1.2300 nv         1 JW6      -1.057000
     43 N7           0.8500   -11.1640     1.2480 ns         1 JW6      -0.514900
     44 N8           7.9960   -12.9020     1.8810 ns         1 JW6      -0.497900
     45 N9           7.1010   -14.1230     4.1950 ns         1 JW6      -0.507900
     46 O2           8.8770   -14.8440     1.0840 o          1 JW6      -0.611100
     47 H1           7.8770   -11.1870     6.7390 hn         1 JW6       0.467500
     48 H2           8.6670   -11.3330     5.2820 hn         1 JW6       0.467500
     49 H3          -2.9350   -13.0320     3.4780 h1         1 JW6       0.085700
     50 H4           5.8080   -11.0230     3.7030 hn         1 JW6       0.420400
     51 H5          -3.5530   -14.9150     2.0130 hc         1 JW6       0.064200
     52 H6          -1.9740   -14.8930     1.2470 hc         1 JW6       0.064200
     53 H7           3.4130    -5.4040    -0.9990 ho         1 JW6       0.482000
     54 H8           4.4290   -12.3570     4.1260 h1         1 JW6       0.105700
     55 H9           1.9660   -15.3390     6.8350 hc         1 JW6       0.041700
     56 H10          1.2390   -13.7560     6.5800 hc         1 JW6       0.041700
     57 H11         -0.3420   -15.6410     6.1480 h1         1 JW6       0.059700
     58 H12          0.7060   -16.2350     4.8430 h1         1 JW6       0.059700
     59 H13          0.1890   -13.6270     4.0840 hn         1 JW6       0.326500
     60 H14          2.3530   -13.6450     4.3100 hc         1 JW6       0.061700
     61 H15          3.0840   -15.2180     4.6060 hc         1 JW6       0.061700
     62 H16          4.4200   -14.3180     6.4750 hc         1 JW6       0.043700
     63 H17          3.5220   -12.8050     6.4370 hc         1 JW6       0.043700
     64 H18         -6.4790   -10.1220    -0.3990 hn         1 JW6       0.392000
     65 H19         -6.8960   -11.2710     0.6540 hn         1 JW6       0.392000
     66 H21          6.2240   -12.5050     6.5240 hn         1 JW6       0.475000
     67 H22         -3.6130   -13.8910    -0.2450 hc         1 JW6       0.036700
     68 H23         -2.4610   -12.6570     0.2330 hc         1 JW6       0.036700
     69 H24         -4.1220   -11.7560     1.9000 hc         1 JW6       0.050700
     70 H25         -5.2610   -13.0250     1.4450 hc         1 JW6       0.050700
     71 H26         -5.3280   -12.1100    -0.9010 h1         1 JW6       0.023700
     72 H27         -4.1850   -10.8270    -0.4200 h1         1 JW6       0.023700
     73 H28          0.5050    -9.8700     2.8750 h1         1 JW6       0.102700
     74 H29         -1.3270    -8.5920     1.8740 hc         1 JW6       0.066700
     75 H30         -1.4360    -9.7020     0.5220 hc         1 JW6       0.066700
     76 H31          1.0500    -7.4350     2.2510 ha         1 JW6       0.110000
     77 H32          1.4870    -7.8560    -2.6940 ha         1 JW6       0.127000
     78 H33         -0.2050    -9.2100    -1.4830 ha         1 JW6       0.106000
     79 H34          2.3690   -12.3940    -0.3240 hc         1 JW6       0.065200
     80 H35          3.1610   -13.3130     0.9730 hc         1 JW6       0.065200
     81 H36          5.5040   -13.2030     0.8780 ha         1 JW6       0.128000
     82 H37          8.2500   -12.7930    -0.2130 h1         1 JW6       0.062200
     83 H38          8.8140   -11.3820     0.7040 h1         1 JW6       0.062200
     84 H39          7.6410   -15.9010     3.1750 h1         1 JW6       0.079200
     85 H40          8.9970   -15.0070     3.9170 h1         1 JW6       0.079200
     86 H41          7.5450    -9.5490    -0.1930 ha         1 JW6       0.109000
     87 H42          5.3530    -8.4480    -0.5910 ha         1 JW6       0.112000
     88 H43          3.2380    -9.6990    -0.2320 ha         1 JW6       0.109000
     89 H44         -0.3840   -12.8740     1.8890 hn         1 JW6       0.340500
     90 H45          2.8110    -5.8890     2.2400 hn         1 JW6       0.425500
     91 H46          3.9090    -5.7820     0.9330 hn         1 JW6       0.425500
     92 H47          0.6450   -11.2710     0.2610 hn         1 JW6       0.306500
     93 H48          7.5930   -12.4560     2.7030 hn         1 JW6       0.337500
     94 H49          7.4590   -13.4600     4.8830 hn         1 JW6       0.323500
     95 O5          -2.2810   -15.5520     4.3730 o          1 JW6      -0.594100
     96 O4          -1.9710   -10.7470     3.5720 o          1 JW6      -0.622100
     97 O3           2.4340   -11.4980     2.8380 o          1 JW6      -0.586100
@<TRIPOS>BOND
     1     1    13 1   
     2     1    47 1   
     3     1    48 1   
     4     2     3 1   
     5     2    10 1   
     6     2    95 2   
     7     3     5 1   
     8     3    41 1   
     9     3    49 1   
    10     4    13 2   
    11     4    50 1   
    12     5    18 1   
    13     5    51 1   
    14     5    52 1   
    15     6    27 1   
    16     6    53 1   
    17     7    12 1   
    18     7    15 1   
    19     7    16 1   
    20     7    54 1   
    21     8     9 1   
    22     8    11 1   
    23     8    55 1   
    24     8    56 1   
    25     9    10 1   
    26     9    57 1   
    27     9    58 1   
    28    10    59 1   
    29    11    12 1   
    30    11    60 1   
    31    11    61 1   
    32    12    62 1   
    33    12    63 1   
    34    13    15 1   
    35    14    20 1   
    36    14    64 1   
    37    14    65 1   
    38    15    66 1   
    39    16    17 2   
    40    16    45 1   
    41    18    19 1   
    42    18    67 1   
    43    18    68 1   
    44    19    20 1   
    45    19    69 1   
    46    19    70 1   
    47    20    71 1   
    48    20    72 1   
    49    21    22 1   
    50    21    41 1   
    51    21    96 2   
    52    22    23 1   
    53    22    43 1   
    54    22    73 1   
    55    23    24 1   
    56    23    74 1   
    57    23    75 1   
    58    24    25 ar  
    59    24    29 ar  
    60    25    26 ar  
    61    25    76 1   
    62    26    27 ar  
    63    26    42 1   
    64    27    28 ar  
    65    28    29 ar  
    66    28    77 1   
    67    29    78 1   
    68    30    31 1   
    69    30    43 1   
    70    30    97 2   
    71    31    32 1   
    72    31    79 1   
    73    31    80 1   
    74    32    33 ar  
    75    32    40 ar  
    76    33    34 ar  
    77    33    81 1   
    78    34    35 1   
    79    34    38 ar  
    80    35    44 1   
    81    35    82 1   
    82    35    83 1   
    83    36    37 1   
    84    36    44 1   
    85    36    46 2   
    86    37    45 1   
    87    37    84 1   
    88    37    85 1   
    89    38    39 ar  
    90    38    86 1   
    91    39    40 ar  
    92    39    87 1   
    93    40    88 1   
    94    41    89 1   
    95    42    90 1   
    96    42    91 1   
    97    43    92 1   
    98    44    93 1   
    99    45    94 1   
@<TRIPOS>SUBSTRUCTURE
     1 JW6         1 TEMP              0 ****  ****    0 ROOT
