@<TRIPOS>MOLECULE
JW6
   97    99     1     0     0
SMALL
abcg2


@<TRIPOS>ATOM
      1 N1           7.6480   -10.9140     4.9480 nv         1 JW6      -1.042200
      2 C7          -0.6380   -14.6840     3.9970 c          1 JW6       0.582100
      3 C8          -1.3380   -13.9210     2.8660 c3         1 JW6       0.029700
      4 N2           6.3490   -10.9440     3.0550 n2         1 JW6      -0.911100
      5 C9          -1.6860   -14.8190     1.6870 c3         1 JW6      -0.079400
      6 O1           3.4560    -5.4320     0.2090 oh         1 JW6      -0.536100
      7 C1           4.3080   -12.3300     4.6300 c3         1 JW6       0.152500
      8 C5           1.2050   -13.5880     6.6260 c3         1 JW6      -0.100400
      9 C6           0.0020   -14.4900     6.3700 c3         1 JW6       0.100000
     10 N3          -0.7610   -14.1030     5.2020 ns         1 JW6      -0.500900
     11 C4           2.1690   -13.5090     5.4490 c3         1 JW6      -0.075400
     12 C3           3.4410   -12.7580     5.8190 c3         1 JW6      -0.077400
     13 C2           6.4540   -11.1570     4.3200 c2         1 JW6       0.801100
     14 N4          -5.4710   -11.9960    -0.0150 n8         1 JW6      -0.994200
     15 N            5.4890   -11.6790     5.1380 nu         1 JW6      -0.979400
     16 C            4.6140   -13.5140     3.7080 c          1 JW6       0.569100
     17 O            3.8380   -13.8480     2.8260 o          1 JW6      -0.585100
     18 C10         -2.3210   -14.0780     0.5150 c3         1 JW6      -0.072400
     19 C11         -3.6090   -13.3370     0.8540 c3         1 JW6      -0.085400
     20 C12         -4.2560   -12.7130    -0.3720 c3         1 JW6       0.150800
     21 C13         -0.6020   -11.5730     2.8700 c          1 JW6       0.591100
     22 C14          0.3710   -10.5590     2.2720 c3         1 JW6       0.023700
     23 C15         -0.3380    -9.2240     1.9830 c3         1 JW6      -0.037100
     24 C16          0.6360    -8.1880     1.5020 ca         1 JW6      -0.104300
     25 C17          1.3760    -7.4440     2.4190 ca         1 JW6      -0.098000
     26 C18          2.3370    -6.5300     2.0120 ca         1 JW6       0.149000
     27 C19          2.5570    -6.3430     0.6380 ca         1 JW6       0.142100
     28 C20          1.8370    -7.0860    -0.2840 ca         1 JW6      -0.135000
     29 C21          0.8860    -8.0030     0.1480 ca         1 JW6      -0.091000
     30 C22          2.3630   -10.9180     0.8720 c          1 JW6       0.613100
     31 C23          2.7900   -11.3200    -0.5310 c3         1 JW6      -0.108100
     32 C24          4.2680   -11.1930    -0.7340 ca         1 JW6      -0.076300
     33 C25          5.1250   -12.1620    -0.2240 ca         1 JW6      -0.076000
     34 C26          6.5040   -12.0440    -0.3470 ca         1 JW6      -0.097300
     35 C27          7.4310   -13.0970     0.2120 c3         1 JW6       0.147300
     36 C28          6.6350   -14.8890     1.6890 c          1 JW6       0.588100
     37 C29          6.1850   -15.2590     3.1000 c3         1 JW6       0.016000
     38 C30          7.0270   -10.9380    -1.0100 ca         1 JW6      -0.093000
     39 C31          6.1820    -9.9730    -1.5380 ca         1 JW6      -0.110000
     40 C32          4.8070   -10.0950    -1.3950 ca         1 JW6      -0.093000
     41 N5          -0.4710   -12.8380     2.4460 ns         1 JW6      -0.494900
     42 N6           3.0830    -5.7270     2.8980 nv         1 JW6      -1.057000
     43 N7           1.0350   -11.0630     1.0960 ns         1 JW6      -0.514900
     44 N8           6.9940   -13.6140     1.4860 ns         1 JW6      -0.497900
     45 N9           5.7680   -14.1670     3.9340 ns         1 JW6      -0.507900
     46 O2           6.6900   -15.7630     0.8360 o          1 JW6      -0.611100
     47 H1           7.6360   -10.7640     5.9440 hn         1 JW6       0.467500
     48 H2           8.2520   -10.2730     4.4600 hn         1 JW6       0.467500
     49 H3          -2.2510   -13.4710     3.2600 h1         1 JW6       0.085700
     50 H4           5.4210   -11.1310     2.6960 hn         1 JW6       0.420400
     51 H5          -2.3680   -15.5950     2.0440 hc         1 JW6       0.064200
     52 H6          -0.7870   -15.3360     1.3430 hc         1 JW6       0.064200
     53 H7           3.6910    -4.8670     0.9600 ho         1 JW6       0.482000
     54 H8           3.7240   -11.6290     4.0250 h1         1 JW6       0.105700
     55 H9           1.7240   -13.9700     7.5110 hc         1 JW6       0.041700
     56 H10          0.8610   -12.5810     6.8830 hc         1 JW6       0.041700
     57 H11         -0.6610   -14.4730     7.2370 h1         1 JW6       0.059700
     58 H12          0.3270   -15.5210     6.2380 h1         1 JW6       0.059700
     59 H13         -1.2690   -13.2320     5.2530 hn         1 JW6       0.326500
     60 H14          1.6780   -13.0140     4.6080 hc         1 JW6       0.061700
     61 H15          2.4150   -14.5190     5.1140 hc         1 JW6       0.061700
     62 H16          4.0400   -13.3710     6.5000 hc         1 JW6       0.043700
     63 H17          3.1800   -11.8480     6.3660 hc         1 JW6       0.043700
     64 H18         -5.8640   -11.5650    -0.8420 hn         1 JW6       0.392000
     65 H19         -6.1680   -12.6610     0.3000 hn         1 JW6       0.392000
     66 H21          5.7390   -11.8790     6.0940 hn         1 JW6       0.475000
     67 H22         -2.5250   -14.8110    -0.2720 hc         1 JW6       0.036700
     68 H23         -1.6020   -13.3750     0.0840 hc         1 JW6       0.036700
     69 H24         -3.4200   -12.5460     1.5850 hc         1 JW6       0.050700
     70 H25         -4.3160   -14.0310     1.3230 hc         1 JW6       0.050700
     71 H26         -4.4140   -13.4970    -1.1280 h1         1 JW6       0.023700
     72 H27         -3.5560   -12.0000    -0.8170 h1         1 JW6       0.023700
     73 H28          1.1380   -10.3890     3.0320 h1         1 JW6       0.102700
     74 H29         -0.8360    -8.8860     2.8920 hc         1 JW6       0.066700
     75 H30         -1.1150    -9.3920     1.2320 hc         1 JW6       0.066700
     76 H31          1.2090    -7.5850     3.4820 ha         1 JW6       0.110000
     77 H32          2.0070    -6.9310    -1.3430 ha         1 JW6       0.127000
     78 H33          0.3270    -8.5710    -0.5870 ha         1 JW6       0.106000
     79 H34          2.2460   -10.6980    -1.2480 hc         1 JW6       0.065200
     80 H35          2.4590   -12.3470    -0.7080 hc         1 JW6       0.065200
     81 H36          4.7040   -13.0150     0.2960 ha         1 JW6       0.128000
     82 H37          7.5110   -13.9310    -0.4840 h1         1 JW6       0.062200
     83 H38          8.4350   -12.6780     0.3130 h1         1 JW6       0.062200
     84 H39          5.3920   -16.0000     3.0000 h1         1 JW6       0.079200
     85 H40          7.0230   -15.7570     3.5900 h1         1 JW6       0.079200
     86 H41          8.1010   -10.8280    -1.1090 ha         1 JW6       0.109000
     87 H42          6.5970    -9.1150    -2.0510 ha         1 JW6       0.112000
     88 H43          4.1510    -9.3310    -1.7960 ha         1 JW6       0.109000
     89 H44          0.2800   -13.0550     1.8060 hn         1 JW6       0.340500
     90 H45          2.7080    -5.7470     3.8360 hn         1 JW6       0.425500
     91 H46          4.0550    -6.0090     2.9500 hn         1 JW6       0.425500
     92 H47          0.4520   -11.2380     0.2890 hn         1 JW6       0.306500
     93 H48          6.9000   -12.9300     2.2310 hn         1 JW6       0.337500
     94 H49          6.3760   -13.8640     4.6780 hn         1 JW6       0.323500
     95 O5          -0.0020   -15.7060     3.7920 o          1 JW6      -0.594100
     96 O4          -1.4310   -11.2200     3.6970 o          1 JW6      -0.622100
     97 O3           3.1450   -10.5270     1.7180 o          1 JW6      -0.586100
@<TRIPOS>BOND
     1     1    13 1   
     2     1    47 1   
     3     1    48 1   
     4     2     3 1   
     5     2    10 1   
     6     2    95 2   
     7     3     5 1   
     8     3    41 1   
     9     3    49 1   
    10     4    13 2   
    11     4    50 1   
    12     5    18 1   
    13     5    51 1   
    14     5    52 1   
    15     6    27 1   
    16     6    53 1   
    17     7    12 1   
    18     7    15 1   
    19     7    16 1   
    20     7    54 1   
    21     8     9 1   
    22     8    11 1   
    23     8    55 1   
    24     8    56 1   
    25     9    10 1   
    26     9    57 1   
    27     9    58 1   
    28    10    59 1   
    29    11    12 1   
    30    11    60 1   
    31    11    61 1   
    32    12    62 1   
    33    12    63 1   
    34    13    15 1   
    35    14    20 1   
    36    14    64 1   
    37    14    65 1   
    38    15    66 1   
    39    16    17 2   
    40    16    45 1   
    41    18    19 1   
    42    18    67 1   
    43    18    68 1   
    44    19    20 1   
    45    19    69 1   
    46    19    70 1   
    47    20    71 1   
    48    20    72 1   
    49    21    22 1   
    50    21    41 1   
    51    21    96 2   
    52    22    23 1   
    53    22    43 1   
    54    22    73 1   
    55    23    24 1   
    56    23    74 1   
    57    23    75 1   
    58    24    25 ar  
    59    24    29 ar  
    60    25    26 ar  
    61    25    76 1   
    62    26    27 ar  
    63    26    42 1   
    64    27    28 ar  
    65    28    29 ar  
    66    28    77 1   
    67    29    78 1   
    68    30    31 1   
    69    30    43 1   
    70    30    97 2   
    71    31    32 1   
    72    31    79 1   
    73    31    80 1   
    74    32    33 ar  
    75    32    40 ar  
    76    33    34 ar  
    77    33    81 1   
    78    34    35 1   
    79    34    38 ar  
    80    35    44 1   
    81    35    82 1   
    82    35    83 1   
    83    36    37 1   
    84    36    44 1   
    85    36    46 2   
    86    37    45 1   
    87    37    84 1   
    88    37    85 1   
    89    38    39 ar  
    90    38    86 1   
    91    39    40 ar  
    92    39    87 1   
    93    40    88 1   
    94    41    89 1   
    95    42    90 1   
    96    42    91 1   
    97    43    92 1   
    98    44    93 1   
    99    45    94 1   
@<TRIPOS>SUBSTRUCTURE
     1 JW6         1 TEMP              0 ****  ****    0 ROOT
