@<TRIPOS>MOLECULE
JW7
   45    48     1     0     0
SMALL
bcc


@<TRIPOS>ATOM
      1 CAL         -4.3910    -0.4170    -0.8630 c6         1 JW7      -0.092900
      2 CAJ         -5.5080    -1.4570    -0.8710 c6         1 JW7      -0.071900
      3 CAI         -5.8020    -1.9800     0.5310 c6         1 JW7      -0.078400
      4 CAK         -4.5380    -2.5270     1.1870 c6         1 JW7      -0.071900
      5 CAM         -3.4280    -1.4800     1.2000 c6         1 JW7      -0.092900
      6 CAX         -3.1300    -0.9780    -0.2140 c6         1 JW7       0.233500
      7 NAQ         -2.0940     0.0350    -0.2220 nu         1 JW7      -0.751000
      8 CAT         -0.7840    -0.2200    -0.1560 cc         1 JW7       0.183400
      9 CAH         -0.2280    -1.4800    -0.1300 cd         1 JW7      -0.408200
     10 CAW          1.1760    -1.6950    -0.0970 c          1 JW7       0.713700
     11 OAA          1.7370    -2.7840    -0.0530 o          1 JW7      -0.614500
     12 NAY          1.9440    -0.5200    -0.1050 n          1 JW7      -0.111000
     13 CAS          3.3670    -0.5860    -0.0380 ca         1 JW7       0.048600
     14 CAE          4.0850    -1.1950    -1.0570 ca         1 JW7      -0.108500
     15 CAC          5.4700    -1.2300    -0.9860 ca         1 JW7      -0.124500
     16 CAB          6.1320    -0.6600     0.0940 ca         1 JW7      -0.122000
     17 CAD          5.4040    -0.0480     1.1060 ca         1 JW7      -0.124500
     18 CAF          4.0180    -0.0140     1.0450 ca         1 JW7      -0.108500
     19 NAP          1.4400     0.6930    -0.0940 nd         1 JW7      -0.420300
     20 CAV          0.1640     0.8800    -0.1170 cc         1 JW7       0.264600
     21 CAU         -0.2430     2.2790    -0.1050 cc         1 JW7       0.383200
     22 NAN          0.6240     3.3140    -0.0780 na         1 JW7      -0.424700
     23 CAG         -0.1420     4.4210    -0.0700 cc         1 JW7       0.374400
     24 NAR         -1.4030     4.0950    -0.0890 nd         1 JW7      -0.346000
     25 NAO         -1.4660     2.7450    -0.1120 nd         1 JW7      -0.398000
     26 HAL1        -4.1690    -0.0880    -1.8810 hc         1 JW7       0.051200
     27 HAL2        -4.7180     0.4680    -0.3040 hc         1 JW7       0.051200
     28 HAJ1        -6.4070    -1.0260    -1.3150 hc         1 JW7       0.043450
     29 HAJ2        -5.2150    -2.2930    -1.5160 hc         1 JW7       0.043450
     30 HAX         -2.7880    -1.8210    -0.8260 h1         1 JW7       0.062700
     31 HAI1        -6.2060    -1.1670     1.1440 hc         1 JW7       0.042700
     32 HAI2        -6.5730    -2.7530     0.4900 hc         1 JW7       0.042700
     33 HAK1        -4.7480    -2.8560     2.2060 hc         1 JW7       0.043450
     34 HAK2        -4.1990    -3.4130     0.6390 hc         1 JW7       0.043450
     35 HAM1        -3.7330    -0.6250     1.8130 hc         1 JW7       0.051200
     36 HAM2        -2.5230    -1.8890     1.6550 hc         1 JW7       0.051200
     37 HAQ         -2.3800     1.0080    -0.1720 hn         1 JW7       0.480800
     38 HAH         -0.8460    -2.3670    -0.1190 ha         1 JW7       0.167000
     39 HAE          3.5730    -1.6230    -1.9070 ha         1 JW7       0.144500
     40 HAF          3.4470     0.4560     1.8360 ha         1 JW7       0.144500
     41 HAC          6.0320    -1.7010    -1.7810 ha         1 JW7       0.135500
     42 HAB          7.2120    -0.6890     0.1450 ha         1 JW7       0.134000
     43 HAD          5.9130     0.3990     1.9500 ha         1 JW7       0.135500
     44 HAN          1.6320     3.2630    -0.0680 hn         1 JW7       0.331700
     45 HAG          0.2560     5.4220    -0.0500 h5         1 JW7       0.069100
@<TRIPOS>BOND
     1     1     2 1   
     2     1     6 1   
     3     1    26 1   
     4     1    27 1   
     5     2     3 1   
     6     2    28 1   
     7     2    29 1   
     8     3     4 1   
     9     3    31 1   
    10     3    32 1   
    11     4     5 1   
    12     4    33 1   
    13     4    34 1   
    14     5     6 1   
    15     5    35 1   
    16     5    36 1   
    17     6     7 1   
    18     6    30 1   
    19     7     8 1   
    20     7    37 1   
    21     8     9 2   
    22     8    20 1   
    23     9    10 1   
    24     9    38 1   
    25    10    11 2   
    26    10    12 1   
    27    12    13 1   
    28    12    19 1   
    29    13    14 ar  
    30    13    18 ar  
    31    14    15 ar  
    32    14    39 1   
    33    15    16 ar  
    34    15    41 1   
    35    16    17 ar  
    36    16    42 1   
    37    17    18 ar  
    38    17    43 1   
    39    18    40 1   
    40    19    20 2   
    41    20    21 1   
    42    21    22 1   
    43    21    25 2   
    44    22    23 1   
    45    22    44 1   
    46    23    24 2   
    47    23    45 1   
    48    24    25 1   
@<TRIPOS>SUBSTRUCTURE
     1 JW7         1 TEMP              0 ****  ****    0 ROOT
