@<TRIPOS>MOLECULE
JW7
   45    48     1     0     0
SMALL
No Charge or Current Charge


@<TRIPOS>ATOM
      1 CAL         -4.3930    -0.3920    -0.8620 c6         1 JW7      -0.092900
      2 CAJ         -5.5470    -1.4220    -0.9580 c6         1 JW7      -0.071900
      3 CAI         -5.9020    -1.9940     0.4370 c6         1 JW7      -0.078400
      4 CAK         -4.6570    -2.6020     1.1290 c6         1 JW7      -0.071900
      5 CAM         -3.5060    -1.5680     1.2170 c6         1 JW7      -0.092900
      6 CAX         -3.1440    -1.0100    -0.1850 c6         1 JW7       0.233500
      7 NAQ         -2.1030     0.0220    -0.0590 nu         1 JW7      -0.806200
      8 CAT         -0.7300    -0.1890    -0.0370 cc         1 JW7       0.183400
      9 CAH         -0.2120    -1.4590    -0.0130 cd         1 JW7      -0.458200
     10 CAW          1.2260    -1.7060     0.0150 c          1 JW7       0.571200
     11 OAA          1.6870    -2.8390     0.0470 o          1 JW7      -0.539000
     12 NAY          2.0130    -0.5250     0.0150 n          1 JW7      -0.044000
     13 CAS          3.4510    -0.5860     0.0040 ca         1 JW7       0.048600
     14 CAE          4.1280    -1.3210    -0.9910 ca         1 JW7      -0.090500
     15 CAC          5.5330    -1.3750    -1.0040 ca         1 JW7      -0.106500
     16 CAB          6.2730    -0.6940    -0.0230 ca         1 JW7      -0.104000
     17 CAD          5.6070     0.0440     0.9700 ca         1 JW7      -0.106500
     18 CAF          4.2010     0.0990     0.9830 ca         1 JW7      -0.090500
     19 NAP          1.5570     0.7990    -0.0130 nd         1 JW7      -0.420300
     20 CAV          0.2190     0.9440    -0.0330 cc         1 JW7       0.264600
     21 CAU         -0.3070     2.3130    -0.0560 cc         1 JW7       0.383200
     22 NAN          0.5420     3.3960    -0.0560 na         1 JW7      -0.475000
     23 CAG         -0.2340     4.5220    -0.0790 cc         1 JW7       0.374400
     24 NAR         -1.5030     4.1560    -0.0940 nd         1 JW7      -0.346000
     25 NAO         -1.5520     2.7830    -0.0800 nd         1 JW7      -0.398000
     26 HAL1        -4.1340    -0.0350    -1.8690 hc         1 JW7       0.051200
     27 HAL2        -4.7340     0.4860    -0.2950 hc         1 JW7       0.051200
     28 HAJ1        -6.4330    -0.9500    -1.4040 hc         1 JW7       0.043450
     29 HAJ2        -5.2570    -2.2410    -1.6310 hc         1 JW7       0.043450
     30 HAX         -2.7940    -1.8370    -0.8220 h1         1 JW7       0.062700
     31 HAI1        -6.3240    -1.1980     1.0670 hc         1 JW7       0.042700
     32 HAI2        -6.6840    -2.7600     0.3380 hc         1 JW7       0.042700
     33 HAK1        -4.9220    -2.9510     2.1360 hc         1 JW7       0.043450
     34 HAK2        -4.3180    -3.4860     0.5720 hc         1 JW7       0.043450
     35 HAM1        -3.8020    -0.7440     1.8810 hc         1 JW7       0.051200
     36 HAM2        -2.6250    -2.0360     1.6760 hc         1 JW7       0.051200
     37 HAQ         -2.3990     1.0050    -0.0680 hn         1 JW7       0.536000
     38 HAH         -0.8150    -2.3550    -0.0030 ha         1 JW7       0.217000
     39 HAE          3.5650    -1.8470    -1.7590 ha         1 JW7       0.126500
     40 HAF          3.6940     0.6700     1.7570 ha         1 JW7       0.126500
     41 HAC          6.0480    -1.9440    -1.7750 ha         1 JW7       0.117500
     42 HAB          7.3600    -0.7360    -0.0330 ha         1 JW7       0.116000
     43 HAD          6.1780     0.5730     1.7300 ha         1 JW7       0.117500
     44 HAN          1.5500     3.3580    -0.0410 hn         1 JW7       0.382000
     45 HAG          0.1630     5.5310    -0.0850 h5         1 JW7       0.069100
@<TRIPOS>BOND
     1     1     2 1   
     2     1     6 1   
     3     1    26 1   
     4     1    27 1   
     5     2     3 1   
     6     2    28 1   
     7     2    29 1   
     8     3     4 1   
     9     3    31 1   
    10     3    32 1   
    11     4     5 1   
    12     4    33 1   
    13     4    34 1   
    14     5     6 1   
    15     5    35 1   
    16     5    36 1   
    17     6     7 1   
    18     6    30 1   
    19     7     8 1   
    20     7    37 1   
    21     8     9 2   
    22     8    20 1   
    23     9    10 1   
    24     9    38 1   
    25    10    11 2   
    26    10    12 1   
    27    12    13 1   
    28    12    19 1   
    29    13    14 ar  
    30    13    18 ar  
    31    14    15 ar  
    32    14    39 1   
    33    15    16 ar  
    34    15    41 1   
    35    16    17 ar  
    36    16    42 1   
    37    17    18 ar  
    38    17    43 1   
    39    18    40 1   
    40    19    20 2   
    41    20    21 1   
    42    21    22 1   
    43    21    25 2   
    44    22    23 1   
    45    22    44 1   
    46    23    24 2   
    47    23    45 1   
    48    24    25 1   
@<TRIPOS>SUBSTRUCTURE
     1 JW7         1 TEMP              0 ****  ****    0 ROOT
