@<TRIPOS>MOLECULE
JW9
   43    45     1     0     0
SMALL
abcg2


@<TRIPOS>ATOM
      1 O1           2.2560    53.8690    58.6890 oh         1 JW9      -0.535100
      2 C34          2.8600    54.5790    59.6660 ca         1 JW9       0.138100
      3 C33          2.8120    55.9670    59.5880 ca         1 JW9      -0.178500
      4 C32          3.4200    56.7350    60.5710 ca         1 JW9      -0.059500
      5 C35          3.5240    53.9800    60.7350 ca         1 JW9      -0.178500
      6 C36          4.1220    54.7630    61.7090 ca         1 JW9      -0.059500
      7 C31          4.0790    56.1540    61.6490 ca         1 JW9      -0.119300
      8 C22          4.6960    56.9950    62.7330 c3         1 JW9       0.211100
      9 N1           6.0940    56.6730    62.9800 n3         1 JW9      -0.718600
     10 C23          6.9090    57.0720    61.8490 c3         1 JW9       0.151100
     11 C20          6.5320    57.2580    64.2450 c3         1 JW9       0.226800
     12 C21          8.0460    57.1750    64.4480 c3         1 JW9      -0.091100
     13 C5           5.8660    56.5570    65.4170 ca         1 JW9      -0.076300
     14 C4           5.6860    55.1970    65.3710 ca         1 JW9      -0.088000
     15 C3           5.1320    54.4840    66.4510 ca         1 JW9      -0.111000
     16 C2           4.7590    55.1410    67.5890 ca         1 JW9      -0.099000
     17 C1           4.9320    56.5400    67.6900 ca         1 JW9      -0.040000
     18 C6           5.4950    57.2640    66.5990 ca         1 JW9      -0.025000
     19 C14          4.5560    57.2300    68.8670 ca         1 JW9      -0.097000
     20 C13          4.7280    58.5810    68.9780 ca         1 JW9      -0.110000
     21 C12          5.2900    59.3030    67.9070 ca         1 JW9      -0.107000
     22 C11          5.6610    58.6640    66.7550 ca         1 JW9      -0.106000
     23 H1           2.3600    52.9240    58.8480 ho         1 JW9       0.463000
     24 H2           2.3040    56.4430    58.7580 ha         1 JW9       0.119000
     25 H3           3.3770    57.8150    60.4920 ha         1 JW9       0.116000
     26 H4           3.5740    52.8980    60.8090 ha         1 JW9       0.119000
     27 H5           4.6310    54.2780    62.5320 ha         1 JW9       0.116000
     28 H6           4.5690    58.0620    62.4830 h1         1 JW9       0.042200
     29 H7           4.1410    56.8340    63.6610 h1         1 JW9       0.042200
     30 H9           7.9250    56.6940    61.9420 h1         1 JW9       0.033367
     31 H10          6.4920    56.6460    60.9360 h1         1 JW9       0.033367
     32 H11          6.9580    58.1630    61.7130 h1         1 JW9       0.033367
     33 H12          6.2630    58.3250    64.2560 h1         1 JW9       0.027700
     34 H13          8.2980    57.5120    65.4530 hc         1 JW9       0.042367
     35 H14          8.3970    56.1470    64.3410 hc         1 JW9       0.042367
     36 H15          8.5950    57.8050    63.7480 hc         1 JW9       0.042367
     37 H16          5.9700    54.6620    64.4750 ha         1 JW9       0.129000
     38 H17          5.0040    53.4130    66.3710 ha         1 JW9       0.113000
     39 H18          4.3300    54.6030    68.4250 ha         1 JW9       0.113000
     40 H19          4.1260    56.6630    69.6850 ha         1 JW9       0.112000
     41 H20          4.4370    59.0970    69.8840 ha         1 JW9       0.113000
     42 H21          5.4290    60.3720    67.9960 ha         1 JW9       0.111000
     43 H22          6.0930    59.2520    65.9570 ha         1 JW9       0.111000
@<TRIPOS>BOND
     1     1     2 1   
     2     1    23 1   
     3     2     3 ar  
     4     2     5 ar  
     5     3     4 ar  
     6     3    24 1   
     7     4     7 ar  
     8     4    25 1   
     9     5     6 ar  
    10     5    26 1   
    11     6     7 ar  
    12     6    27 1   
    13     7     8 1   
    14     8     9 1   
    15     8    28 1   
    16     8    29 1   
    17     9    10 1   
    18     9    11 1   
    19    10    30 1   
    20    10    31 1   
    21    10    32 1   
    22    11    12 1   
    23    11    13 1   
    24    11    33 1   
    25    12    34 1   
    26    12    35 1   
    27    12    36 1   
    28    13    14 ar  
    29    13    18 ar  
    30    14    15 ar  
    31    14    37 1   
    32    15    16 ar  
    33    15    38 1   
    34    16    17 ar  
    35    16    39 1   
    36    17    18 ar  
    37    17    19 ar  
    38    18    22 ar  
    39    19    20 ar  
    40    19    40 1   
    41    20    21 ar  
    42    20    41 1   
    43    21    22 ar  
    44    21    42 1   
    45    22    43 1   
@<TRIPOS>SUBSTRUCTURE
     1 JW9         1 TEMP              0 ****  ****    0 ROOT
