@<TRIPOS>MOLECULE
JW9
   43    45     1     0     0
SMALL
No Charge or Current Charge


@<TRIPOS>ATOM
      1 O1           2.3270    53.9320    58.5140 oh         1 JW9      -0.535100
      2 C34          2.8760    54.6240    59.5510 ca         1 JW9       0.138100
      3 C33          2.8760    56.0260    59.5290 ca         1 JW9      -0.178500
      4 C32          3.4400    56.7490    60.5940 ca         1 JW9      -0.059500
      5 C35          3.4390    53.9390    60.6400 ca         1 JW9      -0.178500
      6 C36          4.0040    54.6600    61.7070 ca         1 JW9      -0.059500
      7 C31          4.0080    56.0680    61.6900 ca         1 JW9      -0.119300
      8 C22          4.6190    56.8440    62.8530 c3         1 JW9       0.211100
      9 N1           6.0950    56.6800    62.9680 n3         1 JW9      -0.718600
     10 C23          6.7970    57.1980    61.7630 c3         1 JW9       0.151100
     11 C20          6.6310    57.2140    64.2600 c3         1 JW9       0.226800
     12 C21          8.1660    57.0820    64.4130 c3         1 JW9      -0.091100
     13 C5           5.9730    56.5560    65.4930 ca         1 JW9      -0.076300
     14 C4           5.8140    55.1510    65.4800 ca         1 JW9      -0.088000
     15 C3           5.2110    54.4760    66.5500 ca         1 JW9      -0.111000
     16 C2           4.7620    55.1950    67.6630 ca         1 JW9      -0.099000
     17 C1           4.9280    56.5900    67.7160 ca         1 JW9      -0.040000
     18 C6           5.5410    57.2860    66.6410 ca         1 JW9      -0.025000
     19 C14          4.4810    57.2840    68.8580 ca         1 JW9      -0.097000
     20 C13          4.6450    58.6730    68.9520 ca         1 JW9      -0.110000
     21 C12          5.2620    59.3720    67.9060 ca         1 JW9      -0.107000
     22 C11          5.7090    58.6890    66.7620 ca         1 JW9      -0.106000
     23 H1           2.4170    52.9730    58.6990 ho         1 JW9       0.463000
     24 H2           2.4400    56.5550    58.6850 ha         1 JW9       0.119000
     25 H3           3.4360    57.8370    60.5680 ha         1 JW9       0.116000
     26 H4           3.4450    52.8520    60.6660 ha         1 JW9       0.119000
     27 H5           4.4430    54.1270    62.5480 ha         1 JW9       0.116000
     28 H6           4.3700    57.9100    62.7500 h1         1 JW9       0.042200
     29 H7           4.1150    56.4970    63.7640 h1         1 JW9       0.042200
     30 H9           7.8590    56.9220    61.7690 h1         1 JW9       0.033367
     31 H10          6.3690    56.7800    60.8430 h1         1 JW9       0.033367
     32 H11          6.7220    58.2920    61.7080 h1         1 JW9       0.033367
     33 H12          6.4080    58.2860    64.2580 h1         1 JW9       0.027700
     34 H13          8.4760    57.4000    65.4150 hc         1 JW9       0.042367
     35 H14          8.4840    56.0420    64.2710 hc         1 JW9       0.042367
     36 H15          8.6970    57.7150    63.6930 hc         1 JW9       0.042367
     37 H16          6.1570    54.5760    64.6220 ha         1 JW9       0.129000
     38 H17          5.0910    53.3960    66.5140 ha         1 JW9       0.113000
     39 H18          4.2930    54.6650    68.4890 ha         1 JW9       0.113000
     40 H19          4.0090    56.7450    69.6770 ha         1 JW9       0.112000
     41 H20          4.3010    59.2040    69.8360 ha         1 JW9       0.113000
     42 H21          5.3990    60.4490    67.9820 ha         1 JW9       0.111000
     43 H22          6.1920    59.2790    65.9920 ha         1 JW9       0.111000
@<TRIPOS>BOND
     1     1     2 1   
     2     1    23 1   
     3     2     3 ar  
     4     2     5 ar  
     5     3     4 ar  
     6     3    24 1   
     7     4     7 ar  
     8     4    25 1   
     9     5     6 ar  
    10     5    26 1   
    11     6     7 ar  
    12     6    27 1   
    13     7     8 1   
    14     8     9 1   
    15     8    28 1   
    16     8    29 1   
    17     9    10 1   
    18     9    11 1   
    19    10    30 1   
    20    10    31 1   
    21    10    32 1   
    22    11    12 1   
    23    11    13 1   
    24    11    33 1   
    25    12    34 1   
    26    12    35 1   
    27    12    36 1   
    28    13    14 ar  
    29    13    18 ar  
    30    14    15 ar  
    31    14    37 1   
    32    15    16 ar  
    33    15    38 1   
    34    16    17 ar  
    35    16    39 1   
    36    17    18 ar  
    37    17    19 ar  
    38    18    22 ar  
    39    19    20 ar  
    40    19    40 1   
    41    20    21 ar  
    42    20    41 1   
    43    21    22 ar  
    44    21    42 1   
    45    22    43 1   
@<TRIPOS>SUBSTRUCTURE
     1 JW9         1 TEMP              0 ****  ****    0 ROOT
