@<TRIPOS>MOLECULE
JWA
   52    54     1     0     0
SMALL
No Charge or Current Charge


@<TRIPOS>ATOM
      1 C01          0.4810     1.0720     0.3620 ca         1 JWA      -0.009000
      2 C02         -0.8220     0.6010     0.6140 ca         1 JWA      -0.030000
      3 C03         -1.0480    -0.1260     1.7960 ca         1 JWA      -0.045000
      4 C04          0.0020    -0.3850     2.6900 ca         1 JWA      -0.135000
      5 C05          1.3090     0.0690     2.4340 ca         1 JWA       0.017700
      6 C06          1.5530     0.8070     1.2430 ca         1 JWA      -0.297500
      7 C07         -1.9210     0.8890    -0.3250 cc         1 JWA      -0.157000
      8 S08          3.1740     1.4450     0.7340 sy         1 JWA       1.159600
      9 O09          3.0070     2.8420     0.3270 o          1 JWA      -0.537500
     10 O10          4.2510     1.0160     1.6270 o          1 JWA      -0.537500
     11 C11          2.3820    -0.2440     3.4720 c3         1 JWA      -0.077800
     12 N12          3.4120     0.6220    -0.6980 n7         1 JWA      -0.886300
     13 C13          3.0760    -0.8120    -0.8320 c5         1 JWA       0.218500
     14 C14          3.3400    -1.2170    -2.2980 c5         1 JWA      -0.095400
     15 C15          3.2930    -2.7660    -2.1880 c5         1 JWA      -0.078900
     16 C16          3.9070    -3.0770    -0.7830 c5         1 JWA      -0.078900
     17 C17          4.1450    -1.6830    -0.1280 c5         1 JWA      -0.095400
     18 C18         -2.8330    -0.0480    -0.7340 cd         1 JWA       0.172300
     19 O19         -3.6080     0.4780    -1.7360 os         1 JWA      -0.069700
     20 N20         -3.1440     1.8010    -2.0390 nd         1 JWA      -0.362300
     21 C21         -2.1370     1.9800    -1.2030 cc         1 JWA       0.295300
     22 C22         -1.3500     3.2610    -1.1730 c3         1 JWA      -0.138400
     23 C23         -3.0150    -1.5200    -0.4200 c3         1 JWA       0.072700
     24 N24         -4.4140    -1.8900    -0.1470 ns         1 JWA      -0.507900
     25 C25         -5.1290    -1.5000     0.9620 c          1 JWA       0.605100
     26 O26         -4.6470    -0.8050     1.8440 o          1 JWA      -0.606100
     27 C27         -6.5650    -2.0010     1.0070 c3         1 JWA      -0.177100
     28 H1           0.6840     1.6130    -0.5590 ha         1 JWA       0.145000
     29 H2          -2.0490    -0.4570     2.0560 ha         1 JWA       0.147000
     30 H3          -0.2130    -0.9390     3.6000 ha         1 JWA       0.118000
     31 H4           3.1540    -0.9050     3.0640 hc         1 JWA       0.058033
     32 H5           2.8620     0.6720     3.8380 hc         1 JWA       0.058033
     33 H6           1.9640    -0.7500     4.3500 hc         1 JWA       0.058033
     34 H7           4.4060     0.7710    -0.8490 hn         1 JWA       0.487000
     35 H8           2.0490    -1.0560    -0.5220 h1         1 JWA       0.079700
     36 H9           2.5810    -0.8240    -2.9830 hc         1 JWA       0.051700
     37 H10          4.3180    -0.8720    -2.6570 hc         1 JWA       0.051700
     38 H11          2.2600    -3.1310    -2.2480 hc         1 JWA       0.045950
     39 H12          3.8480    -3.2500    -3.0000 hc         1 JWA       0.045950
     40 H13          3.2150    -3.6820    -0.1850 hc         1 JWA       0.045950
     41 H14          4.8400    -3.6480    -0.8590 hc         1 JWA       0.045950
     42 H15          5.1640    -1.3270    -0.3250 hc         1 JWA       0.051700
     43 H16          4.0160    -1.7160     0.9580 hc         1 JWA       0.051700
     44 H17         -0.4960     3.2100    -1.8580 hc         1 JWA       0.062033
     45 H18         -1.9730     4.1090    -1.4790 hc         1 JWA       0.062033
     46 H19         -0.9770     3.4750    -0.1640 hc         1 JWA       0.062033
     47 H20         -2.6750    -2.0950    -1.2910 h1         1 JWA       0.070700
     48 H21         -2.3910    -1.8290     0.4240 h1         1 JWA       0.070700
     49 H22         -4.9050    -2.4660    -0.8220 hn         1 JWA       0.324500
     50 H23         -7.0800    -1.6900     0.0920 hc         1 JWA       0.063033
     51 H24         -6.5650    -3.0930     0.9150 hc         1 JWA       0.063033
     52 H25         -7.0990    -1.6710     1.9050 hc         1 JWA       0.063033
@<TRIPOS>BOND
     1     1     2 ar  
     2     1     6 ar  
     3     1    28 1   
     4     2     3 ar  
     5     2     7 1   
     6     3     4 ar  
     7     3    29 1   
     8     4     5 ar  
     9     4    30 1   
    10     5     6 ar  
    11     5    11 1   
    12     6     8 1   
    13     7    18 2   
    14     7    21 1   
    15     8     9 2   
    16     8    10 2   
    17     8    12 1   
    18    11    31 1   
    19    11    32 1   
    20    11    33 1   
    21    12    13 1   
    22    12    34 1   
    23    13    14 1   
    24    13    17 1   
    25    13    35 1   
    26    14    15 1   
    27    14    36 1   
    28    14    37 1   
    29    15    16 1   
    30    15    38 1   
    31    15    39 1   
    32    16    17 1   
    33    16    40 1   
    34    16    41 1   
    35    17    42 1   
    36    17    43 1   
    37    18    19 1   
    38    18    23 1   
    39    19    20 1   
    40    20    21 2   
    41    21    22 1   
    42    22    44 1   
    43    22    45 1   
    44    22    46 1   
    45    23    24 1   
    46    23    47 1   
    47    23    48 1   
    48    24    25 1   
    49    24    49 1   
    50    25    26 2   
    51    25    27 1   
    52    27    50 1   
    53    27    51 1   
    54    27    52 1   
@<TRIPOS>SUBSTRUCTURE
     1 JWA         1 TEMP              0 ****  ****    0 ROOT
