@<TRIPOS>MOLECULE
JWA
   52    54     1     0     0
SMALL
bcc


@<TRIPOS>ATOM
      1 C01          0.3410     1.0770     0.1590 ca         1 JWA      -0.027000
      2 C02         -0.8900     0.5860     0.5840 ca         1 JWA      -0.030000
      3 C03         -0.9370    -0.1220     1.7810 ca         1 JWA      -0.063000
      4 C04          0.2170    -0.3450     2.5130 ca         1 JWA      -0.153000
      5 C05          1.4590     0.1350     2.1080 ca         1 JWA       0.017700
      6 C06          1.4870     0.8610     0.9100 ca         1 JWA      -0.297500
      7 C07         -2.1000     0.8250    -0.2070 cc         1 JWA      -0.287600
      8 S08          3.0060     1.5410     0.2700 sy         1 JWA       1.301200
      9 O09          2.6780     2.2160    -0.9760 o          1 JWA      -0.608300
     10 O10          3.6670     2.2920     1.3260 o          1 JWA      -0.608300
     11 C11          2.6640    -0.1610     2.9510 c3         1 JWA      -0.077800
     12 N12          4.0050     0.2980    -0.1020 n7         1 JWA      -0.831100
     13 C13          3.6240    -0.7280    -1.0650 c5         1 JWA       0.218500
     14 C14          4.8580    -1.3220    -1.7500 c5         1 JWA      -0.095400
     15 C15          4.4040    -2.6960    -2.2760 c5         1 JWA      -0.078900
     16 C16          3.0210    -2.9600    -1.6400 c5         1 JWA      -0.078900
     17 C17          2.9090    -1.9550    -0.4980 c5         1 JWA      -0.095400
     18 C18         -3.0610    -0.0570    -0.5850 cd         1 JWA       0.282000
     19 O19         -4.0060     0.5830    -1.2700 os         1 JWA      -0.114100
     20 N20         -3.6990     1.9090    -1.3560 nd         1 JWA      -0.362300
     21 C21         -2.5650     2.0660    -0.7380 cc         1 JWA       0.360600
     22 C22         -1.9320     3.4070    -0.6310 c3         1 JWA      -0.138400
     23 C23         -3.2070    -1.5360    -0.4450 c3         1 JWA       0.072700
     24 N24         -4.5230    -1.9370    -0.0180 ns         1 JWA      -0.574900
     25 C25         -4.9910    -1.6640     1.2120 c          1 JWA       0.672100
     26 O26         -4.3230    -1.0610     2.0410 o          1 JWA      -0.606100
     27 C27         -6.3820    -2.1590     1.5110 c3         1 JWA      -0.177100
     28 H1           0.4040     1.6170    -0.7750 ha         1 JWA       0.163000
     29 H2          -1.8850    -0.4920     2.1500 ha         1 JWA       0.165000
     30 H3           0.1530    -0.9040     3.4380 ha         1 JWA       0.136000
     31 H4           3.3860    -0.7840     2.4210 hc         1 JWA       0.058033
     32 H5           3.1790     0.7430     3.2700 hc         1 JWA       0.058033
     33 H6           2.3690    -0.7120     3.8410 hc         1 JWA       0.058033
     34 H7           4.5600    -0.0210     0.6840 hn         1 JWA       0.431800
     35 H8           2.9860    -0.2540    -1.8150 h1         1 JWA       0.079700
     36 H9           5.2470    -0.6670    -2.5300 hc         1 JWA       0.051700
     37 H10          5.6500    -1.4420    -1.0070 hc         1 JWA       0.051700
     38 H11          4.3430    -2.7120    -3.3640 hc         1 JWA       0.045950
     39 H12          5.1200    -3.4680    -1.9920 hc         1 JWA       0.045950
     40 H13          2.2300    -2.7710    -2.3690 hc         1 JWA       0.045950
     41 H14          2.9020    -3.9900    -1.3050 hc         1 JWA       0.045950
     42 H15          3.4510    -2.3120     0.3840 hc         1 JWA       0.051700
     43 H16          1.8790    -1.7600    -0.1990 hc         1 JWA       0.051700
     44 H17         -1.0770     3.4920    -1.3030 hc         1 JWA       0.062033
     45 H18         -2.6410     4.1890    -0.8930 hc         1 JWA       0.062033
     46 H19         -1.5740     3.5870     0.3820 hc         1 JWA       0.062033
     47 H20         -3.0190    -2.0050    -1.4110 h1         1 JWA       0.070700
     48 H21         -2.4410    -1.9080     0.2360 h1         1 JWA       0.070700
     49 H22         -5.1060    -2.4240    -0.6780 hn         1 JWA       0.324500
     50 H23         -6.8880    -2.5860     0.6480 hc         1 JWA       0.063033
     51 H24         -6.3310    -2.9180     2.2910 hc         1 JWA       0.063033
     52 H25         -6.9840    -1.3370     1.8970 hc         1 JWA       0.063033
@<TRIPOS>BOND
     1     1     2 ar  
     2     1     6 ar  
     3     1    28 1   
     4     2     3 ar  
     5     2     7 1   
     6     3     4 ar  
     7     3    29 1   
     8     4     5 ar  
     9     4    30 1   
    10     5     6 ar  
    11     5    11 1   
    12     6     8 1   
    13     7    18 2   
    14     7    21 1   
    15     8     9 2   
    16     8    10 2   
    17     8    12 1   
    18    11    31 1   
    19    11    32 1   
    20    11    33 1   
    21    12    13 1   
    22    12    34 1   
    23    13    14 1   
    24    13    17 1   
    25    13    35 1   
    26    14    15 1   
    27    14    36 1   
    28    14    37 1   
    29    15    16 1   
    30    15    38 1   
    31    15    39 1   
    32    16    17 1   
    33    16    40 1   
    34    16    41 1   
    35    17    42 1   
    36    17    43 1   
    37    18    19 1   
    38    18    23 1   
    39    19    20 1   
    40    20    21 2   
    41    21    22 1   
    42    22    44 1   
    43    22    45 1   
    44    22    46 1   
    45    23    24 1   
    46    23    47 1   
    47    23    48 1   
    48    24    25 1   
    49    24    49 1   
    50    25    26 2   
    51    25    27 1   
    52    27    50 1   
    53    27    51 1   
    54    27    52 1   
@<TRIPOS>SUBSTRUCTURE
     1 JWA         1 TEMP              0 ****  ****    0 ROOT
