@<TRIPOS>MOLECULE
JWB
   28    30     1     0     0
SMALL
bcc


@<TRIPOS>ATOM
      1 C2           3.1750     0.0230     0.2240 c          1 JWB       0.930600
      2 C4           2.0500     0.0110    -0.8370 c3         1 JWB      -0.061000
      3 C6           0.1030     1.1540     0.1690 c          1 JWB       0.727500
      4 C8          -1.1810     0.7690     0.8500 c5         1 JWB      -0.160700
      5 C11         -2.3440    -0.7910    -1.3830 c5         1 JWB      -0.079400
      6 C12         -2.4700    -1.1390     0.1060 c5         1 JWB      -0.054700
      7 C15          0.1150    -1.1450     0.1760 c          1 JWB       0.727500
      8 O1           2.8290     0.0250     1.4160 o          1 JWB      -0.830300
      9 O3           4.3270     0.0290    -0.2460 o          1 JWB      -0.830300
     10 N5           0.7370     0.0060    -0.2490 n          1 JWB      -0.456400
     11 C9          -2.4810     1.1200     0.0960 c5         1 JWB      -0.054700
     12 C10         -2.3510     0.7600    -1.3910 c5         1 JWB      -0.079400
     13 C13         -3.3880    -0.0120     0.6010 c5         1 JWB      -0.091400
     14 C14         -1.1730    -0.7680     0.8560 c5         1 JWB      -0.160700
     15 H1           2.1400     0.8830    -1.4860 h1         1 JWB       0.047700
     16 H2           2.1500    -0.8690    -1.4730 h1         1 JWB       0.047700
     17 H3          -1.1960     1.1970     1.8550 hc         1 JWB       0.084700
     18 H4          -1.4590    -1.2180    -1.8580 hc         1 JWB       0.046700
     19 H5          -3.2030    -1.1880    -1.9260 hc         1 JWB       0.046700
     20 H6          -2.8020    -2.1580     0.3010 hc         1 JWB       0.066700
     21 H8          -2.8230     2.1370     0.2810 hc         1 JWB       0.066700
     22 H9          -1.4710     1.1920    -1.8680 hc         1 JWB       0.046700
     23 H10         -3.2140     1.1430    -1.9370 hc         1 JWB       0.046700
     24 H11         -4.3720    -0.0190     0.1260 hc         1 JWB       0.042200
     25 H12         -3.5220    -0.0070     1.6850 hc         1 JWB       0.042200
     26 H13         -1.1810    -1.1880     1.8640 hc         1 JWB       0.084700
     27 O7           0.5280     2.2710    -0.0190 o          1 JWB      -0.598500
     28 O16          0.5510    -2.2590    -0.0020 o          1 JWB      -0.598500
@<TRIPOS>BOND
     1     1     2 1   
     2     1     8 1   
     3     1     9 1   
     4     2    10 1   
     5     2    15 1   
     6     2    16 1   
     7     3     4 1   
     8     3    10 1   
     9     3    27 2   
    10     4    11 1   
    11     4    14 1   
    12     4    17 1   
    13     5     6 1   
    14     5    12 1   
    15     5    18 1   
    16     5    19 1   
    17     6    13 1   
    18     6    14 1   
    19     6    20 1   
    20     7    10 1   
    21     7    14 1   
    22     7    28 2   
    23    11    12 1   
    24    11    13 1   
    25    11    21 1   
    26    12    22 1   
    27    12    23 1   
    28    13    24 1   
    29    13    25 1   
    30    14    26 1   
@<TRIPOS>SUBSTRUCTURE
     1 JWB         1 TEMP              0 ****  ****    0 ROOT
