@<TRIPOS>MOLECULE
JWB
   28    30     1     0     0
SMALL
No Charge or Current Charge


@<TRIPOS>ATOM
      1 C2           3.2330     0.2610     0.0760 c          1 JWB       0.720000
      2 C4           2.0420    -0.1500    -0.8220 c3         1 JWB      -0.061000
      3 C6           0.1440     1.1040     0.2290 c          1 JWB       0.585000
      4 C8          -1.1780     0.7380     0.9320 c5         1 JWB      -0.160700
      5 C11         -2.3380    -0.7660    -1.4100 c5         1 JWB      -0.079400
      6 C12         -2.5470    -1.1250     0.1020 c5         1 JWB      -0.054700
      7 C15          0.0540    -1.2850     0.2200 c          1 JWB       0.585000
      8 O1           3.2470    -0.1200     1.2390 o          1 JWB      -0.725000
      9 O3           4.1110     0.9570    -0.4140 o          1 JWB      -0.725000
     10 N5           0.7080    -0.1120    -0.1520 n          1 JWB      -0.322400
     11 C9          -2.4610     1.1480     0.1150 c5         1 JWB      -0.054700
     12 C10         -2.2810     0.7930    -1.4010 c5         1 JWB      -0.079400
     13 C13         -3.4510     0.0450     0.5570 c5         1 JWB      -0.091400
     14 C14         -1.2380    -0.8240     0.9240 c5         1 JWB      -0.160700
     15 H1           2.0160     0.5260    -1.6860 h1         1 JWB       0.047700
     16 H2           2.2450    -1.1590    -1.2020 h1         1 JWB       0.047700
     17 H3          -1.1900     1.1820     1.9340 hc         1 JWB       0.084700
     18 H4          -1.4530    -1.2250    -1.8630 hc         1 JWB       0.046700
     19 H5          -3.1910    -1.1110    -2.0070 hc         1 JWB       0.046700
     20 H6          -2.9620    -2.1260     0.2700 hc         1 JWB       0.066700
     21 H8          -2.7990     2.1760     0.2960 hc         1 JWB       0.066700
     22 H9          -1.3640     1.1900    -1.8500 hc         1 JWB       0.046700
     23 H10         -3.1060     1.2070    -1.9920 hc         1 JWB       0.046700
     24 H11         -4.4120     0.0840     0.0300 hc         1 JWB       0.042200
     25 H12         -3.6520     0.0460     1.6350 hc         1 JWB       0.042200
     26 H13         -1.2880    -1.2760     1.9210 hc         1 JWB       0.084700
     27 O7           0.6810     2.1990     0.1300 o          1 JWB      -0.523000
     28 O16          0.5060    -2.4180     0.1200 o          1 JWB      -0.523000
@<TRIPOS>BOND
     1     1     2 1   
     2     1     8 1   
     3     1     9 1   
     4     2    10 1   
     5     2    15 1   
     6     2    16 1   
     7     3     4 1   
     8     3    10 1   
     9     3    27 2   
    10     4    11 1   
    11     4    14 1   
    12     4    17 1   
    13     5     6 1   
    14     5    12 1   
    15     5    18 1   
    16     5    19 1   
    17     6    13 1   
    18     6    14 1   
    19     6    20 1   
    20     7    10 1   
    21     7    14 1   
    22     7    28 2   
    23    11    12 1   
    24    11    13 1   
    25    11    21 1   
    26    12    22 1   
    27    12    23 1   
    28    13    24 1   
    29    13    25 1   
    30    14    26 1   
@<TRIPOS>SUBSTRUCTURE
     1 JWB         1 TEMP              0 ****  ****    0 ROOT
