@<TRIPOS>MOLECULE
JWC
   46    49     1     0     0
SMALL
No Charge or Current Charge


@<TRIPOS>ATOM
      1 C10         92.9330    -7.4280    14.5710 ca         1 JWC       0.231500
      2 C11         93.0420    -8.8160    14.1980 ca         1 JWC       0.550300
      3 C16         94.1570   -10.6130    12.9180 c3         1 JWC       0.154900
      4 C17         90.3570    -7.5520    17.2140 cx         1 JWC      -0.195000
      5 C18         89.3050    -6.4900    16.9710 cx         1 JWC      -0.106400
      6 C19         88.8890    -7.9240    17.1910 cx         1 JWC      -0.106400
      7 C20         95.4450    -5.7800    12.0730 c3         1 JWC       0.120000
      8 C21         96.8250    -5.8270    12.7590 c3         1 JWC      -0.133700
      9 C22         98.0690   -10.5680    12.0270 ca         1 JWC      -0.174500
     10 C23         97.7830   -10.7490    10.6570 ca         1 JWC      -0.043000
     11 C24         97.9880   -12.0170    10.0920 ca         1 JWC      -0.174000
     12 C25         98.4680   -13.0590    10.9000 ca         1 JWC       0.342900
     13 C27         98.5450   -11.6730    12.7590 ca         1 JWC       0.360900
     14 C1          97.3420    -7.2250    12.9460 cc         1 JWC       0.437800
     15 N2          97.7600    -7.7650    14.1320 na         1 JWC      -0.179700
     16 N3          98.1020    -9.0780    13.9800 nc         1 JWC      -0.529800
     17 C4          97.8700    -9.2730    12.6890 cd         1 JWC       0.589500
     18 N5          97.4120    -8.1560    12.0170 nd         1 JWC      -0.714000
     19 N6          92.2860    -9.7810    14.7910 nb         1 JWC      -0.724000
     20 C7          91.4240    -9.3610    15.7560 ca         1 JWC       0.351900
     21 C8          91.3070    -7.9980    16.1360 ca         1 JWC       0.299300
     22 N9          92.0570    -7.0280    15.5570 nb         1 JWC      -0.588000
     23 C12         93.7870    -6.3340    13.9090 c          1 JWC       0.525600
     24 O13         93.8770    -5.2010    14.3750 o          1 JWC      -0.583100
     25 N14         94.4740    -6.6460    12.7480 ns         1 JWC      -0.492900
     26 O15         93.9390    -9.2210    13.2250 os         1 JWC      -0.456300
     27 N26         98.7440   -12.8980    12.2140 nb         1 JWC      -0.671000
     28 H33         94.9130   -10.7160    12.1300 h1         1 JWC       0.054367
     29 H31         94.5150   -11.1580    13.8020 h1         1 JWC       0.054367
     30 H32         93.2330   -11.0880    12.5660 h1         1 JWC       0.054367
     31 H34         90.8380    -7.5410    18.1900 hc         1 JWC       0.083700
     32 H36         89.1100    -5.7760    17.7680 hc         1 JWC       0.079950
     33 H35         89.2090    -6.0840    15.9660 hc         1 JWC       0.079950
     34 H37         88.5090    -8.4740    16.3330 hc         1 JWC       0.079950
     35 H38         88.4140    -8.1750    18.1370 hc         1 JWC       0.079950
     36 H39         95.5450    -6.1180    11.0330 h1         1 JWC       0.065200
     37 H40         95.0700    -4.7480    12.0550 h1         1 JWC       0.065200
     38 H42         96.7550    -5.3260    13.7310 hc         1 JWC       0.074200
     39 H41         97.5400    -5.2510    12.1620 hc         1 JWC       0.074200
     40 H43         97.4110    -9.9310    10.0430 ha         1 JWC       0.137000
     41 H44         97.7800   -12.1970     9.0410 ha         1 JWC       0.125000
     42 H45         98.6350   -14.0530    10.4860 h4         1 JWC       0.019100
     43 H46         98.7800   -11.5890    13.8200 h4         1 JWC       0.033100
     44 H28         97.8120    -7.2790    15.0240 hn         1 JWC       0.383000
     45 H29         90.8170   -10.1280    16.2360 h4         1 JWC       0.032100
     46 H30         94.3830    -7.6020    12.4120 hn         1 JWC       0.332500
@<TRIPOS>BOND
     1     1     2 ar  
     2     1    22 ar  
     3     1    23 1   
     4     2    19 ar  
     5     2    26 1   
     6     3    26 1   
     7     3    28 1   
     8     3    29 1   
     9     3    30 1   
    10     4     5 1   
    11     4     6 1   
    12     4    21 1   
    13     4    31 1   
    14     5     6 1   
    15     5    32 1   
    16     5    33 1   
    17     6    34 1   
    18     6    35 1   
    19     7     8 1   
    20     7    25 1   
    21     7    36 1   
    22     7    37 1   
    23     8    14 1   
    24     8    38 1   
    25     8    39 1   
    26     9    10 ar  
    27     9    13 ar  
    28     9    17 1   
    29    10    11 ar  
    30    10    40 1   
    31    11    12 ar  
    32    11    41 1   
    33    12    27 ar  
    34    12    42 1   
    35    13    27 ar  
    36    13    43 1   
    37    14    15 1   
    38    14    18 2   
    39    15    16 1   
    40    15    44 1   
    41    16    17 2   
    42    17    18 1   
    43    19    20 ar  
    44    20    21 ar  
    45    20    45 1   
    46    21    22 ar  
    47    23    24 2   
    48    23    25 1   
    49    25    46 1   
@<TRIPOS>SUBSTRUCTURE
     1 JWC         1 TEMP              0 ****  ****    0 ROOT
