@<TRIPOS>MOLECULE
JWC
   46    49     1     0     0
SMALL
abcg2


@<TRIPOS>ATOM
      1 C10         92.9610    -7.7610    14.8090 ca         1 JWC       0.231500
      2 C11         93.3910    -9.0950    14.9220 ca         1 JWC       0.550300
      3 C16         95.0230   -10.7690    14.5830 c3         1 JWC       0.154900
      4 C17         89.7400    -7.8630    16.4870 cx         1 JWC      -0.195000
      5 C18         89.6110    -6.4920    17.0970 cx         1 JWC      -0.106400
      6 C19         88.9390    -6.7880    15.8010 cx         1 JWC      -0.106400
      7 C20         95.0910    -5.9540    12.2570 c3         1 JWC       0.120000
      8 C21         96.5150    -5.9080    12.8090 c3         1 JWC      -0.133700
      9 C22         97.9850   -10.4480    11.6370 ca         1 JWC      -0.174500
     10 C23         97.2980   -10.6980    10.4540 ca         1 JWC      -0.043000
     11 C24         97.5180   -11.8920     9.7890 ca         1 JWC      -0.174000
     12 C25         98.4200   -12.7960    10.3300 ca         1 JWC       0.342900
     13 C27         98.8670   -11.4270    12.0920 ca         1 JWC       0.360900
     14 C1          97.1350    -7.2580    12.8280 cc         1 JWC       0.437800
     15 N2          97.8440    -7.7550    13.8460 na         1 JWC      -0.179700
     16 N3          98.2690    -8.9880    13.5760 nc         1 JWC      -0.529800
     17 C4          97.7840    -9.2000    12.3710 cd         1 JWC       0.589500
     18 N5          97.0780    -8.1610    11.8730 nd         1 JWC      -0.714000
     19 N6          92.6410    -9.9950    15.5170 nb         1 JWC      -0.724000
     20 C7          91.4700    -9.6070    16.0050 ca         1 JWC       0.351900
     21 C8          91.0340    -8.2910    15.9210 ca         1 JWC       0.299300
     22 N9          91.8080    -7.3890    15.3220 nb         1 JWC      -0.588000
     23 C12         93.7810    -6.6590    14.1960 c          1 JWC       0.525600
     24 O13         93.9590    -5.6170    14.8060 o          1 JWC      -0.583100
     25 N14         94.2430    -6.8900    12.9610 ns         1 JWC      -0.492900
     26 O15         94.5850    -9.4220    14.4360 os         1 JWC      -0.456300
     27 N26         99.0830   -12.5700    11.4590 nb         1 JWC      -0.671000
     28 H33         96.0140   -10.8060    14.1400 h1         1 JWC       0.054367
     29 H31         95.0850   -11.0590    15.6320 h1         1 JWC       0.054367
     30 H32         94.3650   -11.4650    14.0610 h1         1 JWC       0.054367
     31 H34         89.1760    -8.6590    16.9590 hc         1 JWC       0.083700
     32 H36         89.0030    -6.4000    17.9880 hc         1 JWC       0.079950
     33 H35         90.4910    -5.8620    17.0790 hc         1 JWC       0.079950
     34 H37         89.3600    -6.3570    14.9010 hc         1 JWC       0.079950
     35 H38         87.8630    -6.9020    15.7890 hc         1 JWC       0.079950
     36 H39         95.1070    -6.2580    11.2130 h1         1 JWC       0.065200
     37 H40         94.6590    -4.9540    12.2960 h1         1 JWC       0.065200
     38 H42         96.5220    -5.4820    13.8120 hc         1 JWC       0.074200
     39 H41         97.1110    -5.2430    12.1790 hc         1 JWC       0.074200
     40 H43         96.6010    -9.9690    10.0620 ha         1 JWC       0.137000
     41 H44         97.0010   -12.1210     8.8680 ha         1 JWC       0.125000
     42 H45         98.6150   -13.7390     9.8320 h4         1 JWC       0.019100
     43 H46         99.4260   -11.2710    13.0080 h4         1 JWC       0.033100
     44 H28         98.0640    -7.3140    14.7270 hn         1 JWC       0.383000
     45 H29         90.8630   -10.3650    16.4860 h4         1 JWC       0.032100
     46 H30         94.0580    -7.7760    12.5220 hn         1 JWC       0.332500
@<TRIPOS>BOND
     1     1     2 ar  
     2     1    22 ar  
     3     1    23 1   
     4     2    19 ar  
     5     2    26 1   
     6     3    26 1   
     7     3    28 1   
     8     3    29 1   
     9     3    30 1   
    10     4     5 1   
    11     4     6 1   
    12     4    21 1   
    13     4    31 1   
    14     5     6 1   
    15     5    32 1   
    16     5    33 1   
    17     6    34 1   
    18     6    35 1   
    19     7     8 1   
    20     7    25 1   
    21     7    36 1   
    22     7    37 1   
    23     8    14 1   
    24     8    38 1   
    25     8    39 1   
    26     9    10 ar  
    27     9    13 ar  
    28     9    17 1   
    29    10    11 ar  
    30    10    40 1   
    31    11    12 ar  
    32    11    41 1   
    33    12    27 ar  
    34    12    42 1   
    35    13    27 ar  
    36    13    43 1   
    37    14    15 1   
    38    14    18 2   
    39    15    16 1   
    40    15    44 1   
    41    16    17 2   
    42    17    18 1   
    43    19    20 ar  
    44    20    21 ar  
    45    20    45 1   
    46    21    22 ar  
    47    23    24 2   
    48    23    25 1   
    49    25    46 1   
@<TRIPOS>SUBSTRUCTURE
     1 JWC         1 TEMP              0 ****  ****    0 ROOT
