@<TRIPOS>MOLECULE
JWD
   41    44     1     0     0
SMALL
bcc


@<TRIPOS>ATOM
      1 C01         -0.2950     0.5710    -0.1030 ca         1 JWD      -0.109000
      2 C02         -1.2250    -1.6220     0.2190 ca         1 JWD      -0.152300
      3 C03          0.0770    -2.1530     0.3370 ca         1 JWD       0.397600
      4 C04          1.1980    -1.2920     0.2320 ca         1 JWD      -0.135300
      5 C05          0.9860     0.0970     0.0180 ca         1 JWD       0.015000
      6 C06         -1.4220    -0.2810    -0.0020 ca         1 JWD       0.009000
      7 C07         -2.7690     0.2760    -0.1290 cc         1 JWD      -0.318600
      8 C08         -3.2870     1.3810     0.4740 cd         1 JWD       0.317000
      9 O09         -4.5480     1.5440     0.0730 os         1 JWD      -0.116100
     10 N10         -4.8920     0.5570    -0.8060 nd         1 JWD      -0.364300
     11 C11         -3.8480    -0.2060    -0.9300 cc         1 JWD       0.359600
     12 C12         -3.8630    -1.3850    -1.8360 c3         1 JWD      -0.135400
     13 C13         -2.7440     2.3580     1.4440 c3         1 JWD      -0.140400
     14 N14          0.2020    -3.4850     0.5500 nb         1 JWD      -0.661000
     15 C15          1.4030    -3.9870     0.6500 ca         1 JWD       0.419200
     16 C16          2.5840    -3.2250     0.5370 ca         1 JWD      -0.250300
     17 C17          2.4780    -1.8800     0.3240 ca         1 JWD      -0.077000
     18 C18          2.1210     1.0220    -0.0820 cc         1 JWD      -0.326600
     19 C19          2.5610     1.7020    -1.1710 cd         1 JWD       0.318000
     20 O20          3.6010     2.4610    -0.8230 os         1 JWD      -0.116100
     21 N21          3.8680     2.3030     0.5080 nd         1 JWD      -0.364300
     22 C22          2.9970     1.4500     0.9590 cc         1 JWD       0.356600
     23 C23          2.9660     1.0500     2.3900 c3         1 JWD      -0.134400
     24 C24          2.1100     1.7320    -2.5800 c3         1 JWD      -0.140400
     25 H1          -0.4480     1.6270    -0.2900 ha         1 JWD       0.137000
     26 H2          -2.0600    -2.3030     0.3220 ha         1 JWD       0.154000
     27 H3          -3.8610    -2.3170    -1.2700 hc         1 JWD       0.059033
     28 H4          -4.7500    -1.3760    -2.4660 hc         1 JWD       0.059033
     29 H5          -2.9800    -1.3890    -2.4740 hc         1 JWD       0.059033
     30 H6          -2.5310     3.3140     0.9640 hc         1 JWD       0.065367
     31 H7          -3.4520     2.5400     2.2520 hc         1 JWD       0.065367
     32 H8          -1.8190     1.9880     1.8800 hc         1 JWD       0.065367
     33 H9           1.4730    -5.0560     0.8220 h4         1 JWD       0.021100
     34 H10          3.5470    -3.7090     0.6150 ha         1 JWD       0.144000
     35 H11          3.3660    -1.2690     0.2160 ha         1 JWD       0.145000
     36 H12          3.1590    -0.0170     2.5050 hc         1 JWD       0.058367
     37 H13          3.7120     1.5940     2.9640 hc         1 JWD       0.058367
     38 H14          1.9840     1.2510     2.8190 hc         1 JWD       0.058367
     39 H15          1.7600     2.7260    -2.8620 hc         1 JWD       0.066367
     40 H16          2.9180     1.4580    -3.2590 hc         1 JWD       0.066367
     41 H17          1.2900     1.0310    -2.7210 hc         1 JWD       0.066367
@<TRIPOS>BOND
     1     1     5 ar  
     2     1     6 ar  
     3     1    25 1   
     4     2     3 ar  
     5     2     6 ar  
     6     2    26 1   
     7     3     4 ar  
     8     3    14 ar  
     9     4     5 ar  
    10     4    17 ar  
    11     5    18 1   
    12     6     7 1   
    13     7     8 2   
    14     7    11 1   
    15     8     9 1   
    16     8    13 1   
    17     9    10 1   
    18    10    11 2   
    19    11    12 1   
    20    12    27 1   
    21    12    28 1   
    22    12    29 1   
    23    13    30 1   
    24    13    31 1   
    25    13    32 1   
    26    14    15 ar  
    27    15    16 ar  
    28    15    33 1   
    29    16    17 ar  
    30    16    34 1   
    31    17    35 1   
    32    18    19 2   
    33    18    22 1   
    34    19    20 1   
    35    19    24 1   
    36    20    21 1   
    37    21    22 2   
    38    22    23 1   
    39    23    36 1   
    40    23    37 1   
    41    23    38 1   
    42    24    39 1   
    43    24    40 1   
    44    24    41 1   
@<TRIPOS>SUBSTRUCTURE
     1 JWD         1 TEMP              0 ****  ****    0 ROOT
