@<TRIPOS>MOLECULE
JWD
   41    44     1     0     0
SMALL
No Charge or Current Charge


@<TRIPOS>ATOM
      1 C01         -0.2870     0.6080    -0.1790 ca         1 JWD      -0.091000
      2 C02         -1.2230    -1.5980     0.1060 ca         1 JWD      -0.069000
      3 C03          0.0540    -2.1350     0.3330 ca         1 JWD       0.267000
      4 C04          1.1840    -1.2720     0.3020 ca         1 JWD      -0.070000
      5 C05          1.0080     0.1180     0.0770 ca         1 JWD       0.015000
      6 C06         -1.4170    -0.2300    -0.1610 ca         1 JWD       0.009000
      7 C07         -2.7670     0.3080    -0.4170 cc         1 JWD      -0.188000
      8 C08         -3.2000     1.5130     0.0630 cd         1 JWD       0.207300
      9 O09         -4.5340     1.6670    -0.2100 os         1 JWD      -0.071700
     10 N10         -5.0140     0.4790    -0.8540 nd         1 JWD      -0.364300
     11 C11         -3.9440    -0.2940    -0.9290 cc         1 JWD       0.294300
     12 C12         -3.9970    -1.6550    -1.5670 c3         1 JWD      -0.135400
     13 C13         -2.5330     2.5800     0.8930 c3         1 JWD      -0.140400
     14 N14          0.1650    -3.4670     0.5590 nb         1 JWD      -0.661000
     15 C15          1.3950    -3.9990     0.7290 ca         1 JWD       0.353900
     16 C16          2.5650    -3.2340     0.6570 ca         1 JWD      -0.167000
     17 C17          2.4650    -1.8540     0.4310 ca         1 JWD      -0.059000
     18 C18          2.1080     1.0940     0.1220 cc         1 JWD      -0.196000
     19 C19          2.3720     1.9380    -0.9140 cd         1 JWD       0.208300
     20 O20          3.5280     2.6300    -0.6630 os         1 JWD      -0.071700
     21 N21          4.0640     2.1860     0.5970 nd         1 JWD      -0.364300
     22 C22          3.2020     1.2700     1.0030 cc         1 JWD       0.291300
     23 C23          3.3370     0.5740     2.3300 c3         1 JWD      -0.134400
     24 C24          1.6810     2.1470    -2.2350 c3         1 JWD      -0.140400
     25 H1          -0.4090     1.6660    -0.3870 ha         1 JWD       0.119000
     26 H2          -2.0730    -2.2680     0.1610 ha         1 JWD       0.136000
     27 H3          -4.2040    -2.4290    -0.8200 hc         1 JWD       0.059033
     28 H4          -4.7910    -1.7010    -2.3220 hc         1 JWD       0.059033
     29 H5          -3.0540    -1.8950    -2.0700 hc         1 JWD       0.059033
     30 H6          -1.9850     3.2870     0.2600 hc         1 JWD       0.065367
     31 H7          -3.2750     3.1530     1.4620 hc         1 JWD       0.065367
     32 H8          -1.8330     2.1440     1.6160 hc         1 JWD       0.065367
     33 H9           1.4420    -5.0730     0.9050 h4         1 JWD       0.021100
     34 H10          3.5350    -3.7110     0.7680 ha         1 JWD       0.126000
     35 H11          3.3740    -1.2700     0.3290 ha         1 JWD       0.127000
     36 H12          4.1520    -0.1580     2.3090 hc         1 JWD       0.058367
     37 H13          3.5580     1.2980     3.1230 hc         1 JWD       0.058367
     38 H14          2.4130     0.0540     2.6070 hc         1 JWD       0.058367
     39 H15          0.8670     2.8760    -2.1410 hc         1 JWD       0.066367
     40 H16          2.3810     2.5240    -2.9890 hc         1 JWD       0.066367
     41 H17          1.2580     1.2100    -2.6140 hc         1 JWD       0.066367
@<TRIPOS>BOND
     1     1     5 ar  
     2     1     6 ar  
     3     1    25 1   
     4     2     3 ar  
     5     2     6 ar  
     6     2    26 1   
     7     3     4 ar  
     8     3    14 ar  
     9     4     5 ar  
    10     4    17 ar  
    11     5    18 1   
    12     6     7 1   
    13     7     8 2   
    14     7    11 1   
    15     8     9 1   
    16     8    13 1   
    17     9    10 1   
    18    10    11 2   
    19    11    12 1   
    20    12    27 1   
    21    12    28 1   
    22    12    29 1   
    23    13    30 1   
    24    13    31 1   
    25    13    32 1   
    26    14    15 ar  
    27    15    16 ar  
    28    15    33 1   
    29    16    17 ar  
    30    16    34 1   
    31    17    35 1   
    32    18    19 2   
    33    18    22 1   
    34    19    20 1   
    35    19    24 1   
    36    20    21 1   
    37    21    22 2   
    38    22    23 1   
    39    23    36 1   
    40    23    37 1   
    41    23    38 1   
    42    24    39 1   
    43    24    40 1   
    44    24    41 1   
@<TRIPOS>SUBSTRUCTURE
     1 JWD         1 TEMP              0 ****  ****    0 ROOT
