@<TRIPOS>MOLECULE
JWE
   27    29     1     0     0
SMALL
abcg2


@<TRIPOS>ATOM
      1 C1          21.4840    35.2330   -15.5290 ca         1 JWE      -0.118000
      2 C2          22.2960    34.2070   -15.0020 cp         1 JWE       0.388500
      3 C3          22.2870    35.2080   -12.9420 ca         1 JWE       0.172000
      4 C7          22.7300    35.1750   -11.5670 ca         1 JWE       0.677900
      5 C8          22.7550    33.0730   -15.8320 cp         1 JWE      -0.077500
      6 C9          23.1740    31.8810   -15.2350 ca         1 JWE      -0.152000
      7 C10         23.5960    30.8450   -16.0420 ca         1 JWE       0.361900
      8 C11         23.2440    32.0430   -17.9040 ca         1 JWE       0.569200
      9 C12         22.7910    33.1560   -17.2180 ca         1 JWE      -0.189000
     10 F           23.2990    32.1040   -19.2370 f          1 JWE      -0.226200
     11 N3          23.6340    30.9210   -17.3730 nb         1 JWE      -0.694000
     12 N           22.6680    34.2110   -13.7440 nb         1 JWE      -0.661000
     13 N2          23.4850    34.1530   -11.1560 nv         1 JWE      -1.058900
     14 N1          22.3980    36.1220   -10.7150 nb         1 JWE      -0.782000
     15 C6          21.6300    37.1400   -11.1340 ca         1 JWE       0.442900
     16 C5          21.1570    37.2720   -12.4100 ca         1 JWE      -0.145900
     17 BR          20.0870    38.7560   -12.8640 br         1 JWE      -0.084100
     18 C4          21.4840    36.2840   -13.3710 ca         1 JWE       0.016000
     19 C           21.0820    36.2600   -14.7220 ca         1 JWE      -0.076000
     20 H1          21.1590    35.2110   -16.5600 ha         1 JWE       0.130000
     21 H2          23.1640    31.7640   -14.1610 ha         1 JWE       0.141000
     22 H3          23.9190    29.9090   -15.6050 h4         1 JWE       0.028100
     23 H4          22.5030    34.0460   -17.7590 ha         1 JWE       0.142000
     24 H5          23.8660    34.1490   -10.2260 hn         1 JWE       0.510000
     25 H6          23.8040    33.4640   -11.8150 hn         1 JWE       0.510000
     26 H7          21.3930    37.8840   -10.3820 h4         1 JWE       0.033100
     27 H8          20.4560    37.0430   -15.1270 ha         1 JWE       0.140000
@<TRIPOS>BOND
     1     1     2 ar  
     2     1    19 ar  
     3     1    20 1   
     4     2     5 1   
     5     2    12 ar  
     6     3     4 ar  
     7     3    12 ar  
     8     3    18 ar  
     9     4    13 1   
    10     4    14 ar  
    11     5     6 ar  
    12     5     9 ar  
    13     6     7 ar  
    14     6    21 1   
    15     7    11 ar  
    16     7    22 1   
    17     8     9 ar  
    18     8    10 1   
    19     8    11 ar  
    20     9    23 1   
    21    13    24 1   
    22    13    25 1   
    23    14    15 ar  
    24    15    16 ar  
    25    15    26 1   
    26    16    17 1   
    27    16    18 ar  
    28    18    19 ar  
    29    19    27 1   
@<TRIPOS>SUBSTRUCTURE
     1 JWE         1 TEMP              0 ****  ****    0 ROOT
