@<TRIPOS>MOLECULE
JWE
   27    29     1     0     0
SMALL
No Charge or Current Charge


@<TRIPOS>ATOM
      1 C1          21.5170    35.2540   -15.5330 ca         1 JWE      -0.118000
      2 C2          22.2960    34.1820   -15.0340 cp         1 JWE       0.388500
      3 C3          22.2860    35.1500   -12.8790 ca         1 JWE       0.172000
      4 C7          22.6440    35.1690   -11.4910 ca         1 JWE       0.677900
      5 C8          22.7510    33.0320   -15.9000 cp         1 JWE      -0.077500
      6 C9          23.2120    31.8060   -15.3480 ca         1 JWE      -0.152000
      7 C10         23.6290    30.7540   -16.1810 ca         1 JWE       0.361900
      8 C11         23.1950    31.9910   -18.0680 ca         1 JWE       0.569200
      9 C12         22.7590    33.0930   -17.3190 ca         1 JWE      -0.189000
     10 F           23.2110    32.0390   -19.4170 f          1 JWE      -0.226200
     11 N3          23.6250    30.8330   -17.5290 nb         1 JWE      -0.694000
     12 N           22.6610    34.1440   -13.7300 nb         1 JWE      -0.661000
     13 N2          23.3770    34.2280   -10.8690 nv         1 JWE      -1.058900
     14 N1          22.3390    36.1150   -10.6060 nb         1 JWE      -0.782000
     15 C6          21.6030    37.1520   -11.0640 ca         1 JWE       0.442900
     16 C5          21.1700    37.2630   -12.4010 ca         1 JWE      -0.145900
     17 Br          20.1280    38.8020   -12.8980 br         1 JWE      -0.084100
     18 C4          21.5150    36.2520   -13.3290 ca         1 JWE       0.016000
     19 C           21.1230    36.2980   -14.6810 ca         1 JWE      -0.076000
     20 H1          21.2060    35.2750   -16.5720 ha         1 JWE       0.130000
     21 H2          23.2430    31.6560   -14.2720 ha         1 JWE       0.141000
     22 H3          23.9780    29.8150   -15.7530 h4         1 JWE       0.028100
     23 H4          22.4480    33.9840   -17.8540 ha         1 JWE       0.142000
     24 H5          23.8140    34.5470   -10.0140 hn         1 JWE       0.510000
     25 H6          23.9380    33.6400   -11.4750 hn         1 JWE       0.510000
     26 H7          21.3510    37.9220   -10.3360 h4         1 JWE       0.033100
     27 H8          20.5260    37.1150   -15.0780 ha         1 JWE       0.140000
@<TRIPOS>BOND
     1     1     2 ar  
     2     1    19 ar  
     3     1    20 1   
     4     2     5 1   
     5     2    12 ar  
     6     3     4 ar  
     7     3    12 ar  
     8     3    18 ar  
     9     4    13 1   
    10     4    14 ar  
    11     5     6 ar  
    12     5     9 ar  
    13     6     7 ar  
    14     6    21 1   
    15     7    11 ar  
    16     7    22 1   
    17     8     9 ar  
    18     8    10 1   
    19     8    11 ar  
    20     9    23 1   
    21    13    24 1   
    22    13    25 1   
    23    14    15 ar  
    24    15    16 ar  
    25    15    26 1   
    26    16    17 1   
    27    16    18 ar  
    28    18    19 ar  
    29    19    27 1   
@<TRIPOS>SUBSTRUCTURE
     1 JWE         1 TEMP              0 ****  ****    0 ROOT
