@<TRIPOS>MOLECULE
JWF
   56    60     1     0     0
SMALL
bcc


@<TRIPOS>ATOM
      1 CAP         -6.1990    -1.5310     1.1030 c6         1 JWF       0.199800
      2 CAN         -7.7120    -1.6360     1.1610 c6         1 JWF       0.156300
      3 NBE         -8.2570    -2.0550    -0.1130 n3         1 JWF      -0.713600
      4 CAA         -9.6900    -2.2310    -0.0490 c3         1 JWF       0.152100
      5 CAO         -7.8770    -1.1090    -1.1390 c6         1 JWF       0.156300
      6 CAQ         -6.3680    -1.0020    -1.2380 c6         1 JWF       0.199800
      7 NBF         -5.7950    -0.6250     0.0470 nh         1 JWF      -0.654000
      8 CAY         -4.4980    -0.1270     0.0590 ca         1 JWF       0.165600
      9 CAI         -4.1060     0.8550    -0.8650 ca         1 JWF      -0.172500
     10 CAG         -2.8280     1.3790    -0.8610 ca         1 JWF      -0.104000
     11 CAH         -3.5420    -0.5360     0.9980 ca         1 JWF      -0.172500
     12 CAF         -2.2700     0.0170     1.0190 ca         1 JWF      -0.104000
     13 CAX         -1.8910     0.9680     0.0820 ca         1 JWF       0.090600
     14 NAU         -0.6060     1.5500     0.0950 nu         1 JWF      -0.632400
     15 CBA          0.5510     0.8720     0.0140 cc         1 JWF       0.180400
     16 CAM          0.6580    -0.4890    -0.1460 cd         1 JWF      -0.391200
     17 CBD          1.9140    -1.1520    -0.2090 c          1 JWF       0.712700
     18 OAB          2.0840    -2.3510    -0.3860 o          1 JWF      -0.607500
     19 NBG          3.0260    -0.3050    -0.0560 n          1 JWF      -0.108000
     20 CAZ          4.3490    -0.8290    -0.1040 ca         1 JWF       0.049600
     21 CAJ          5.2470    -0.3160    -1.0280 ca         1 JWF      -0.102000
     22 CAD          6.5490    -0.7900    -1.0690 ca         1 JWF      -0.117000
     23 CAW          6.9330    -1.7860    -0.1850 ca         1 JWF       0.030400
     24 CLAC         8.5550    -2.3870    -0.2330 cl         1 JWF      -0.104400
     25 CAE          6.0410    -2.3050     0.7420 ca         1 JWF      -0.117000
     26 CAK          4.7440    -1.8220     0.7820 ca         1 JWF      -0.102000
     27 NAT          2.9490     1.0000     0.0510 nd         1 JWF      -0.419300
     28 CBC          1.8050     1.5960     0.0850 cc         1 JWF       0.265600
     29 CBB          1.8790     3.0490     0.1970 cc         1 JWF       0.418200
     30 NAR          0.8690     3.8970     0.2120 nd         1 JWF      -0.739000
     31 CAL          1.4700     5.1000     0.3180 cd         1 JWF       0.533900
     32 NAV          2.7780     5.0400     0.3680 nc         1 JWF      -0.523800
     33 NAS          3.0220     3.7340     0.2890 na         1 JWF      -0.113400
     34 HAP1        -5.8520    -1.1520     2.0640 h1         1 JWF       0.046450
     35 HAP2        -5.7680    -2.5340     0.9660 h1         1 JWF       0.046450
     36 HAN1        -7.9790    -2.3690     1.9270 h1         1 JWF       0.040700
     37 HAN2        -8.1280    -0.6650     1.4800 h1         1 JWF       0.040700
     38 HAA1       -10.2280    -1.3070     0.2170 h1         1 JWF       0.032700
     39 HAA2       -10.0680    -2.5690    -1.0150 h1         1 JWF       0.032700
     40 HAA3        -9.9420    -2.9870     0.6950 h1         1 JWF       0.032700
     41 HAO1        -8.2690    -1.4440    -2.1020 h1         1 JWF       0.040700
     42 HAO2        -8.2960    -0.1060    -0.9470 h1         1 JWF       0.040700
     43 HAQ1        -5.9550    -1.9640    -1.5750 h1         1 JWF       0.046450
     44 HAQ2        -6.1250    -0.2610    -1.9970 h1         1 JWF       0.046450
     45 HAI         -4.8100     1.2330    -1.5950 ha         1 JWF       0.136500
     46 HAH         -3.7720    -1.2940     1.7330 ha         1 JWF       0.136500
     47 HAG         -2.5610     2.1290    -1.5960 ha         1 JWF       0.139500
     48 HAF         -1.5690    -0.3140     1.7750 ha         1 JWF       0.139500
     49 HAU         -0.5400     2.5640     0.1040 hn         1 JWF       0.490800
     50 HAM         -0.2200    -1.1110    -0.2410 ha         1 JWF       0.176000
     51 HAJ          4.9390     0.4580    -1.7190 ha         1 JWF       0.150500
     52 HAK          4.0570    -2.2140     1.5180 ha         1 JWF       0.150500
     53 HAD          7.2480    -0.3880    -1.7880 ha         1 JWF       0.152000
     54 HAE          6.3510    -3.0750     1.4350 ha         1 JWF       0.152000
     55 HAS          3.9660     3.3760     0.3030 hn         1 JWF       0.346700
     56 HAL          0.9310     6.0330     0.3590 h5         1 JWF       0.069100
@<TRIPOS>BOND
     1     1     2 1   
     2     1     7 1   
     3     1    34 1   
     4     1    35 1   
     5     2     3 1   
     6     2    36 1   
     7     2    37 1   
     8     3     4 1   
     9     3     5 1   
    10     4    38 1   
    11     4    39 1   
    12     4    40 1   
    13     5     6 1   
    14     5    41 1   
    15     5    42 1   
    16     6     7 1   
    17     6    43 1   
    18     6    44 1   
    19     7     8 1   
    20     8     9 ar  
    21     8    11 ar  
    22     9    10 ar  
    23     9    45 1   
    24    10    13 ar  
    25    10    47 1   
    26    11    12 ar  
    27    11    46 1   
    28    12    13 ar  
    29    12    48 1   
    30    13    14 1   
    31    14    15 1   
    32    14    49 1   
    33    15    16 2   
    34    15    28 1   
    35    16    17 1   
    36    16    50 1   
    37    17    18 2   
    38    17    19 1   
    39    19    20 1   
    40    19    27 1   
    41    20    21 ar  
    42    20    26 ar  
    43    21    22 ar  
    44    21    51 1   
    45    22    23 ar  
    46    22    53 1   
    47    23    24 1   
    48    23    25 ar  
    49    25    26 ar  
    50    25    54 1   
    51    26    52 1   
    52    27    28 2   
    53    28    29 1   
    54    29    30 2   
    55    29    33 1   
    56    30    31 1   
    57    31    32 2   
    58    31    56 1   
    59    32    33 1   
    60    33    55 1   
@<TRIPOS>SUBSTRUCTURE
     1 JWF         1 TEMP              0 ****  ****    0 ROOT
