@<TRIPOS>MOLECULE
JWF
   56    60     1     0     0
SMALL
No Charge or Current Charge


@<TRIPOS>ATOM
      1 CAP         -6.2130    -1.5580     1.1580 c6         1 JWF       0.199800
      2 CAN         -7.7560    -1.5220     1.4130 c6         1 JWF       0.156300
      3 NBE         -8.5540    -1.8700     0.1980 n3         1 JWF      -0.713600
      4 CAA        -10.0100    -1.8780     0.4540 c3         1 JWF       0.152100
      5 CAO         -8.1720    -0.9690    -0.9320 c6         1 JWF       0.156300
      6 CAQ         -6.6380    -0.9930    -1.2360 c6         1 JWF       0.199800
      7 NBF         -5.8040    -0.7240    -0.0190 nh         1 JWF      -0.792400
      8 CAY         -4.4770    -0.2540    -0.1620 ca         1 JWF       0.304000
      9 CAI         -4.2240     0.9120    -0.9080 ca         1 JWF      -0.154500
     10 CAG         -2.9120     1.3990    -1.0610 ca         1 JWF      -0.086000
     11 CAH         -3.3900    -0.9220     0.4370 ca         1 JWF      -0.154500
     12 CAF         -2.0770    -0.4370     0.2830 ca         1 JWF      -0.086000
     13 CAX         -1.8280     0.7210    -0.4780 ca         1 JWF       0.229000
     14 NAU         -0.5360     1.2370    -0.6350 nu         1 JWF      -0.826000
     15 CBA          0.7290     0.6900    -0.5010 cc         1 JWF       0.180400
     16 CAM          0.9450    -0.6280    -0.7940 cd         1 JWF      -0.441200
     17 CBD          2.2670    -1.2350    -0.6720 c          1 JWF       0.570200
     18 OAB          2.4660    -2.4140    -0.9300 o          1 JWF      -0.532000
     19 NBG          3.2770    -0.3310    -0.2430 n          1 JWF      -0.041000
     20 CAZ          4.6280    -0.7730    -0.0230 ca         1 JWF       0.049600
     21 CAJ          5.7050    -0.1220    -0.6630 ca         1 JWF      -0.084000
     22 CAD          7.0270    -0.5510    -0.4440 ca         1 JWF      -0.099000
     23 CAW          7.2810    -1.6310     0.4160 ca         1 JWF       0.122000
     24 ClAC         8.9330    -2.1660     0.6890 cl         1 JWF      -0.196000
     25 CAE          6.2170    -2.2830     1.0600 ca         1 JWF      -0.099000
     26 CAK          4.8940    -1.8550     0.8420 ca         1 JWF      -0.084000
     27 NAT          3.1320     1.0350     0.0400 nd         1 JWF      -0.419300
     28 CBC          1.8850     1.5170    -0.1130 cc         1 JWF       0.265600
     29 CBB          1.6690     2.9490     0.1110 cc         1 JWF       0.418200
     30 NAR          0.5860     3.7160    -0.0020 nd         1 JWF      -0.739000
     31 CAL          1.0120     4.9940     0.3300 cd         1 JWF       0.533900
     32 NAV          2.3030     5.0610     0.6350 nc         1 JWF      -0.523800
     33 NAS          2.7060     3.7640     0.4900 na         1 JWF      -0.163700
     34 HAP1        -5.7070    -1.2040     2.0680 h1         1 JWF       0.046450
     35 HAP2        -5.9090    -2.6020     0.9970 h1         1 JWF       0.046450
     36 HAN1        -7.9890    -2.2170     2.2330 h1         1 JWF       0.040700
     37 HAN2        -8.0250    -0.5140     1.7630 h1         1 JWF       0.040700
     38 HAA1       -10.3620    -0.8810     0.7520 h1         1 JWF       0.032700
     39 HAA2       -10.5610    -2.1820    -0.4460 h1         1 JWF       0.032700
     40 HAA3       -10.2590    -2.5840     1.2580 h1         1 JWF       0.032700
     41 HAO1        -8.7130    -1.2550    -1.8460 h1         1 JWF       0.040700
     42 HAO2        -8.4630     0.0670    -0.7010 h1         1 JWF       0.040700
     43 HAQ1        -6.3780    -1.9790    -1.6480 h1         1 JWF       0.046450
     44 HAQ2        -6.4330    -0.2530    -2.0230 h1         1 JWF       0.046450
     45 HAI         -5.0490     1.4540    -1.3610 ha         1 JWF       0.118500
     46 HAH         -3.5510    -1.8230     1.0200 ha         1 JWF       0.118500
     47 HAG         -2.7400     2.3020    -1.6390 ha         1 JWF       0.121500
     48 HAF         -1.2580    -0.9580     0.7700 ha         1 JWF       0.121500
     49 HAU         -0.5060     2.2690    -0.6390 hn         1 JWF       0.546000
     50 HAM          0.1650    -1.2920    -1.1390 ha         1 JWF       0.226000
     51 HAJ          5.5150     0.7130    -1.3330 ha         1 JWF       0.132500
     52 HAK          4.0770    -2.3620     1.3500 ha         1 JWF       0.132500
     53 HAD          7.8520    -0.0470    -0.9410 ha         1 JWF       0.134000
     54 HAE          6.4170    -3.1170     1.7280 ha         1 JWF       0.134000
     55 HAS          3.6620     3.4560     0.6490 hn         1 JWF       0.397000
     56 HAL          0.3400     5.8450     0.3320 h5         1 JWF       0.069100
@<TRIPOS>BOND
     1     1     2 1   
     2     1     7 1   
     3     1    34 1   
     4     1    35 1   
     5     2     3 1   
     6     2    36 1   
     7     2    37 1   
     8     3     4 1   
     9     3     5 1   
    10     4    38 1   
    11     4    39 1   
    12     4    40 1   
    13     5     6 1   
    14     5    41 1   
    15     5    42 1   
    16     6     7 1   
    17     6    43 1   
    18     6    44 1   
    19     7     8 1   
    20     8     9 ar  
    21     8    11 ar  
    22     9    10 ar  
    23     9    45 1   
    24    10    13 ar  
    25    10    47 1   
    26    11    12 ar  
    27    11    46 1   
    28    12    13 ar  
    29    12    48 1   
    30    13    14 1   
    31    14    15 1   
    32    14    49 1   
    33    15    16 2   
    34    15    28 1   
    35    16    17 1   
    36    16    50 1   
    37    17    18 2   
    38    17    19 1   
    39    19    20 1   
    40    19    27 1   
    41    20    21 ar  
    42    20    26 ar  
    43    21    22 ar  
    44    21    51 1   
    45    22    23 ar  
    46    22    53 1   
    47    23    24 1   
    48    23    25 ar  
    49    25    26 ar  
    50    25    54 1   
    51    26    52 1   
    52    27    28 2   
    53    28    29 1   
    54    29    30 2   
    55    29    33 1   
    56    30    31 1   
    57    31    32 2   
    58    31    56 1   
    59    32    33 1   
    60    33    55 1   
@<TRIPOS>SUBSTRUCTURE
     1 JWF         1 TEMP              0 ****  ****    0 ROOT
