@<TRIPOS>MOLECULE
JWG
   22    21     1     0     0
SMALL
abcg2


@<TRIPOS>ATOM
      1 C4         -59.9900    25.6780    18.3940 c          1 JWG       0.585100
      2 C5         -59.7760    27.0110    19.0790 c3         1 JWG      -0.136400
      3 C6         -60.9180    27.4150    19.9950 c3         1 JWG      -0.197400
      4 C7         -60.6750    28.7020    20.8100 c          1 JWG       0.716000
      5 N1         -59.5190    25.6020    17.1370 ns         1 JWG      -0.517900
      6 C1         -58.0980    22.2350    15.8690 c          1 JWG       0.722000
      7 C2         -58.2470    23.5160    16.7130 c3         1 JWG      -0.229400
      8 C3         -59.4580    24.3730    16.3690 c3         1 JWG       0.116000
      9 O1         -58.7860    22.1480    14.8320 o          1 JWG      -0.752500
     10 O2         -60.5330    24.7320    18.9530 o          1 JWG      -0.636100
     11 O3         -61.6770    29.1760    21.3840 o          1 JWG      -0.753500
     12 O4         -59.5120    29.1510    20.8500 o          1 JWG      -0.753500
     13 O5         -57.2760    21.3980    16.2920 o          1 JWG      -0.752500
     14 H1         -58.8530    26.9250    19.6600 hc         1 JWG       0.049200
     15 H2         -59.5870    27.7920    18.3380 hc         1 JWG       0.049200
     16 H3         -61.8400    27.5310    19.4170 hc         1 JWG       0.030200
     17 H4         -61.1220    26.6050    20.7030 hc         1 JWG       0.030200
     18 H5         -59.0290    26.4000    16.7690 hn         1 JWG       0.288500
     19 H6         -58.2740    23.2470    17.7720 hc         1 JWG       0.025700
     20 H7         -57.3380    24.1160    16.5850 hc         1 JWG       0.025700
     21 H8         -59.4360    24.6480    15.3150 h1         1 JWG       0.045200
     22 H9         -60.3800    23.8130    16.5260 h1         1 JWG       0.045200
@<TRIPOS>BOND
     1     1     2 1   
     2     1     5 1   
     3     1    10 2   
     4     2     3 1   
     5     2    14 1   
     6     2    15 1   
     7     3     4 1   
     8     3    16 1   
     9     3    17 1   
    10     4    11 1   
    11     4    12 1   
    12     5     8 1   
    13     5    18 1   
    14     6     7 1   
    15     6     9 1   
    16     6    13 1   
    17     7     8 1   
    18     7    19 1   
    19     7    20 1   
    20     8    21 1   
    21     8    22 1   
@<TRIPOS>SUBSTRUCTURE
     1 JWG         1 TEMP              0 ****  ****    0 ROOT
