@<TRIPOS>MOLECULE
JWG
   22    21     1     0     0
SMALL
No Charge or Current Charge


@<TRIPOS>ATOM
      1 C4         -59.4910    25.5510    18.7810 c          1 JWG       0.585100
      2 C5         -59.5400    26.9950    19.3030 c3         1 JWG      -0.136400
      3 C6         -60.8520    27.2930    20.0840 c3         1 JWG      -0.197400
      4 C7         -60.8670    28.7480    20.5830 c          1 JWG       0.716000
      5 N1         -59.6820    25.4190    17.4230 ns         1 JWG      -0.517900
      6 C1         -58.2280    22.4640    15.5020 c          1 JWG       0.722000
      7 C2         -58.1940    23.7670    16.3070 c3         1 JWG      -0.229400
      8 C3         -59.6340    24.1550    16.6860 c3         1 JWG       0.116000
      9 O1         -58.3590    22.5390    14.2900 o          1 JWG      -0.752500
     10 O2         -59.2720    24.5930    19.5090 o          1 JWG      -0.636100
     11 O3         -61.3210    29.6060    19.8420 o          1 JWG      -0.753500
     12 O4         -60.3750    28.9900    21.6740 o          1 JWG      -0.753500
     13 O5         -58.1750    21.4070    16.1110 o          1 JWG      -0.752500
     14 H1         -58.6910    27.1510    19.9800 hc         1 JWG       0.049200
     15 H2         -59.4740    27.6970    18.4630 hc         1 JWG       0.049200
     16 H3         -61.6680    27.1250    19.3710 hc         1 JWG       0.030200
     17 H4         -60.8600    26.5990    20.9340 hc         1 JWG       0.030200
     18 H5         -59.8540    26.2720    16.9030 hn         1 JWG       0.288500
     19 H6         -57.6550    23.6250    17.2520 hc         1 JWG       0.025700
     20 H7         -57.8090    24.5910    15.6940 hc         1 JWG       0.025700
     21 H8         -60.2360    24.2640    15.7740 h1         1 JWG       0.045200
     22 H9         -60.0870    23.3620    17.2960 h1         1 JWG       0.045200
@<TRIPOS>BOND
     1     1     2 1   
     2     1     5 1   
     3     1    10 2   
     4     2     3 1   
     5     2    14 1   
     6     2    15 1   
     7     3     4 1   
     8     3    16 1   
     9     3    17 1   
    10     4    11 1   
    11     4    12 1   
    12     5     8 1   
    13     5    18 1   
    14     6     7 1   
    15     6     9 1   
    16     6    13 1   
    17     7     8 1   
    18     7    19 1   
    19     7    20 1   
    20     8    21 1   
    21     8    22 1   
@<TRIPOS>SUBSTRUCTURE
     1 JWG         1 TEMP              0 ****  ****    0 ROOT
