@<TRIPOS>MOLECULE
JWH
   39    39     1     0     0
SMALL
No Charge or Current Charge


@<TRIPOS>ATOM
      1 C4           2.9120    -1.9360    -0.3540 ca         1 JWH      -0.179000
      2 C14         -7.1830    -0.1930     0.6410 c3         1 JWH      -0.075400
      3 C5           2.4990    -0.6320     0.0030 ca         1 JWH       0.006000
      4 C6           3.3740     0.1900     0.7680 ca         1 JWH      -0.198600
      5 C11         -3.4950     0.4250    -0.6530 c3         1 JWH      -0.078400
      6 C7           3.0000     1.5980     1.1990 c          1 JWH       0.722600
      7 C8           0.2680    -0.5470    -1.2800 c          1 JWH       0.605100
      8 C9          -1.0020     0.3150    -1.3020 c3         1 JWH      -0.162400
      9 C10         -2.2000    -0.4180    -0.6520 c3         1 JWH      -0.061400
     10 C12         -4.6910    -0.3050    -0.0050 c3         1 JWH      -0.074400
     11 C13         -5.9860     0.5370    -0.0070 c3         1 JWH      -0.076400
     12 N1           1.2230    -0.1260    -0.3680 ns         1 JWH      -0.166000
     13 C3           4.1750    -2.4190     0.0210 ca         1 JWH      -0.106000
     14 C1           4.6460    -0.3130     1.1320 ca         1 JWH      -0.063000
     15 C15         -8.4750     0.6470     0.6400 c3         1 JWH      -0.087100
     16 C2           5.0420    -1.6060     0.7600 ca         1 JWH      -0.178000
     17 O1           3.8930     2.4260     1.2950 o          1 JWH      -0.712000
     18 O2           1.8300     1.8470     1.4520 o          1 JWH      -0.712000
     19 O3           0.4100    -1.4930    -2.0470 o          1 JWH      -0.646100
     20 H4           2.2600    -2.5980    -0.9140 ha         1 JWH       0.128000
     21 H17         -7.3690    -1.1330     0.1070 hc         1 JWH       0.034700
     22 H18         -6.9310    -0.4570     1.6760 hc         1 JWH       0.034700
     23 H11         -3.3140     1.3650    -0.1170 hc         1 JWH       0.035700
     24 H12         -3.7510     0.6900    -1.6870 hc         1 JWH       0.035700
     25 H7          -0.8310     1.2500    -0.7540 hc         1 JWH       0.062700
     26 H8          -1.2560     0.5390    -2.3450 hc         1 JWH       0.062700
     27 H9          -1.9430    -0.6830     0.3810 hc         1 JWH       0.046700
     28 H10         -2.3830    -1.3580    -1.1870 hc         1 JWH       0.046700
     29 H13         -4.8730    -1.2450    -0.5410 hc         1 JWH       0.035700
     30 H14         -4.4350    -0.5700     1.0280 hc         1 JWH       0.035700
     31 H15         -6.2420     0.8010    -1.0400 hc         1 JWH       0.036200
     32 H16         -5.8050     1.4770     0.5290 hc         1 JWH       0.036200
     33 H6           0.9590     0.7020     0.1550 hn         1 JWH       0.229000
     34 H3           4.4790    -3.4250    -0.2610 ha         1 JWH       0.084000
     35 H1           5.3300     0.3010     1.7140 ha         1 JWH       0.127000
     36 H21         -9.2940     0.0890     1.1090 hc         1 JWH       0.027700
     37 H20         -8.3310     1.5800     1.1980 hc         1 JWH       0.027700
     38 H19         -8.7730     0.8980    -0.3850 hc         1 JWH       0.027700
     39 H2           6.0210    -1.9790     1.0510 ha         1 JWH       0.088000
@<TRIPOS>BOND
     1     1     3 ar  
     2     1    13 ar  
     3     1    20 1   
     4     2    11 1   
     5     2    15 1   
     6     2    21 1   
     7     2    22 1   
     8     3     4 ar  
     9     3    12 1   
    10     4     6 1   
    11     4    14 ar  
    12     5     9 1   
    13     5    10 1   
    14     5    23 1   
    15     5    24 1   
    16     6    17 1   
    17     6    18 1   
    18     7     8 1   
    19     7    12 1   
    20     7    19 2   
    21     8     9 1   
    22     8    25 1   
    23     8    26 1   
    24     9    27 1   
    25     9    28 1   
    26    10    11 1   
    27    10    29 1   
    28    10    30 1   
    29    11    31 1   
    30    11    32 1   
    31    12    33 1   
    32    13    16 ar  
    33    13    34 1   
    34    14    16 ar  
    35    14    35 1   
    36    15    36 1   
    37    15    37 1   
    38    15    38 1   
    39    16    39 1   
@<TRIPOS>SUBSTRUCTURE
     1 JWH         1 TEMP              0 ****  ****    0 ROOT
