@<TRIPOS>MOLECULE
JWH
   39    39     1     0     0
SMALL
abcg2


@<TRIPOS>ATOM
      1 C4           2.9890    -1.9670    -0.1310 ca         1 JWH      -0.179000
      2 C14         -7.4470    -0.1410    -0.0000 c3         1 JWH      -0.075400
      3 C5           2.6320    -0.6270     0.0620 ca         1 JWH       0.006000
      4 C6           3.6450     0.3400     0.2630 ca         1 JWH      -0.198600
      5 C11         -3.5640     0.2890    -0.0550 c3         1 JWH      -0.078400
      6 C7           3.3700     1.8250     0.4800 c          1 JWH       0.722600
      7 C8           0.1580    -0.8560    -0.1390 c          1 JWH       0.605100
      8 C9          -1.0560     0.0530    -0.1160 c3         1 JWH      -0.162400
      9 C10         -2.3870    -0.6800    -0.0690 c3         1 JWH      -0.061400
     10 C12         -4.9150    -0.4130    -0.0270 c3         1 JWH      -0.074400
     11 C13         -6.0920     0.5550    -0.0110 c3         1 JWH      -0.076400
     12 N1           1.3140    -0.1830     0.0700 ns         1 JWH      -0.166000
     13 C3           4.3210    -2.3460    -0.1280 ca         1 JWH      -0.106000
     14 C1           4.9720    -0.0830     0.2600 ca         1 JWH      -0.063000
     15 C15         -8.6130     0.8390     0.0180 c3         1 JWH      -0.087100
     16 C2           5.3240    -1.4080     0.0670 ca         1 JWH      -0.178000
     17 O1           4.3490     2.5640     0.6480 o          1 JWH      -0.712000
     18 O2           2.1680     2.2060     0.4740 o          1 JWH      -0.712000
     19 O3           0.0730    -2.0580    -0.3390 o          1 JWH      -0.646100
     20 H4           2.2260    -2.7130    -0.2820 ha         1 JWH       0.128000
     21 H17         -7.5270    -0.7910    -0.8780 hc         1 JWH       0.034700
     22 H18         -7.5090    -0.8020     0.8700 hc         1 JWH       0.034700
     23 H11         -3.4800     0.9520     0.8130 hc         1 JWH       0.035700
     24 H12         -3.5110     0.9380    -0.9370 hc         1 JWH       0.035700
     25 H7          -0.9730     0.7390     0.7330 hc         1 JWH       0.062700
     26 H8          -1.0130     0.6880    -1.0080 hc         1 JWH       0.062700
     27 H9          -2.4310    -1.3170     0.8190 hc         1 JWH       0.046700
     28 H10         -2.4760    -1.3460    -0.9310 hc         1 JWH       0.046700
     29 H13         -5.0000    -1.0730    -0.8980 hc         1 JWH       0.035700
     30 H14         -4.9690    -1.0650     0.8520 hc         1 JWH       0.035700
     31 H15         -6.0300     1.2140    -0.8840 hc         1 JWH       0.036200
     32 H16         -6.0120     1.2080     0.8660 hc         1 JWH       0.036200
     33 H6           1.2850     0.8400     0.2270 hn         1 JWH       0.229000
     34 H3           4.5700    -3.3890    -0.2820 ha         1 JWH       0.084000
     35 H1           5.7440     0.6590     0.4110 ha         1 JWH       0.127000
     36 H21         -9.5730     0.3230     0.0200 hc         1 JWH       0.027700
     37 H20         -8.5770     1.4740     0.9050 hc         1 JWH       0.027700
     38 H19         -8.5900     1.4920    -0.8560 hc         1 JWH       0.027700
     39 H2           6.3650    -1.7030     0.0680 ha         1 JWH       0.088000
@<TRIPOS>BOND
     1     1     3 ar  
     2     1    13 ar  
     3     1    20 1   
     4     2    11 1   
     5     2    15 1   
     6     2    21 1   
     7     2    22 1   
     8     3     4 ar  
     9     3    12 1   
    10     4     6 1   
    11     4    14 ar  
    12     5     9 1   
    13     5    10 1   
    14     5    23 1   
    15     5    24 1   
    16     6    17 1   
    17     6    18 1   
    18     7     8 1   
    19     7    12 1   
    20     7    19 2   
    21     8     9 1   
    22     8    25 1   
    23     8    26 1   
    24     9    27 1   
    25     9    28 1   
    26    10    11 1   
    27    10    29 1   
    28    10    30 1   
    29    11    31 1   
    30    11    32 1   
    31    12    33 1   
    32    13    16 ar  
    33    13    34 1   
    34    14    16 ar  
    35    14    35 1   
    36    15    36 1   
    37    15    37 1   
    38    15    38 1   
    39    16    39 1   
@<TRIPOS>SUBSTRUCTURE
     1 JWH         1 TEMP              0 ****  ****    0 ROOT
