@<TRIPOS>MOLECULE
JWI
   67    69     1     0     0
SMALL
No Charge or Current Charge


@<TRIPOS>ATOM
      1 C10          9.9790    -1.3080    23.9770 ca         1 JWI      -0.108500
      2 C13          7.8390     1.8460    20.9650 c          1 JWI       0.594100
      3 C17          8.2350     3.4570    24.3590 c6         1 JWI      -0.090900
      4 C20         11.1430     3.6900    23.7470 c6         1 JWI      -0.071900
      5 C21         10.2440     2.6460    23.0410 c6         1 JWI      -0.090900
      6 C22          6.9350     0.3790    19.0540 ca         1 JWI      -0.123300
      7 C24          6.0360     1.0060    16.8990 ca         1 JWI      -0.164000
      8 C28          6.4030    -1.7290    21.3420 c          1 JWI       0.618100
      9 C01         13.7600    -0.8090    23.1410 c3         1 JWI      -0.083433
     10 C02         12.5380    -1.1570    24.0370 c3         1 JWI      -0.001700
     11 C03         12.5400    -0.1800    25.2440 c3         1 JWI      -0.083433
     12 C04         12.7150    -2.6120    24.5480 c3         1 JWI      -0.083433
     13 C05         11.1830    -1.0380    23.2880 ca         1 JWI      -0.057300
     14 C06         11.0890    -0.6660    21.9260 ca         1 JWI      -0.108500
     15 C07          9.8390    -0.5330    21.2970 ca         1 JWI      -0.097500
     16 C08          8.6440    -0.7320    22.0140 ca         1 JWI      -0.070000
     17 C09          8.7330    -1.1770    23.3440 ca         1 JWI      -0.097500
     18 C12          7.0200     0.5750    20.5760 c3         1 JWI       0.094000
     19 C16          8.7720     3.1300    22.9410 c6         1 JWI       0.112700
     20 C18          9.1220     4.5060    25.0750 c6         1 JWI      -0.071900
     21 C19         10.5940     4.0340    25.1530 c6         1 JWI      -0.077400
     22 C23          6.0970     1.2110    18.2860 ca         1 JWI      -0.057000
     23 C25          6.8030    -0.0180    16.3220 ca         1 JWI       0.339900
     24 C27          7.6650    -0.6280    18.3850 ca         1 JWI       0.370900
     25 C30          6.8370    -3.1620    21.6950 c3         1 JWI      -0.155400
     26 C31          5.8920    -3.8470    22.6990 c3         1 JWI       0.170600
     27 N11          7.3660    -0.6740    21.3390 n          1 JWI      -0.241400
     28 N15          7.9420     2.0950    22.3200 ns         1 JWI      -0.497900
     29 N26          7.6060    -0.8290    17.0470 nb         1 JWI      -0.671000
     30 O29          5.2630    -1.5340    20.9300 o          1 JWI      -0.591100
     31 O32          5.9290    -3.1670    23.9560 oh         1 JWI      -0.669000
     32 H1           9.9980    -1.6170    25.0190 ha         1 JWI       0.117500
     33 H2           7.2050     3.8320    24.2880 hc         1 JWI       0.046700
     34 H3           8.1920     2.5400    24.9630 hc         1 JWI       0.046700
     35 H4          12.1680     3.3030    23.8300 hc         1 JWI       0.042700
     36 H5          11.2010     4.6020    23.1370 hc         1 JWI       0.042700
     37 H6          10.2830     1.6980    23.5940 hc         1 JWI       0.046700
     38 H7          10.6400     2.4390    22.0380 hc         1 JWI       0.046700
     39 H8           5.4040     1.6290    16.2730 ha         1 JWI       0.121000
     40 H9          14.6960    -0.8960    23.7070 hc         1 JWI       0.036367
     41 H10         13.8300    -1.4910    22.2850 hc         1 JWI       0.036367
     42 H11         13.6960     0.2200    22.7670 hc         1 JWI       0.036367
     43 H12         11.7510    -0.4230    25.9650 hc         1 JWI       0.036367
     44 H13         13.4980    -0.2190    25.7780 hc         1 JWI       0.036367
     45 H14         12.3830     0.8510    24.9080 hc         1 JWI       0.036367
     46 H15         11.9310    -2.8890    25.2620 hc         1 JWI       0.036367
     47 H16         12.6780    -3.3220    23.7130 hc         1 JWI       0.036367
     48 H17         13.6810    -2.7350    25.0540 hc         1 JWI       0.036367
     49 H18         11.9730    -0.4660    21.3290 ha         1 JWI       0.117500
     50 H19          9.8140    -0.2460    20.2500 ha         1 JWI       0.129000
     51 H20          7.8300    -1.3830    23.9120 ha         1 JWI       0.129000
     52 H21          6.0080     0.8440    20.9030 h1         1 JWI       0.070700
     53 H22          8.7300     4.0400    22.3230 h1         1 JWI       0.075700
     54 H23          9.0680     5.4640    24.5390 hc         1 JWI       0.042700
     55 H24          8.7360     4.6920    26.0870 hc         1 JWI       0.042700
     56 H25         11.2140     4.8140    25.6150 hc         1 JWI       0.039700
     57 H26         10.6660     3.1510    25.8030 hc         1 JWI       0.039700
     58 H27          5.5100     2.0000    18.7520 ha         1 JWI       0.114000
     59 H28          6.7730    -0.1980    15.2480 h4         1 JWI       0.016100
     60 H29          8.3130    -1.3110    18.9310 h4         1 JWI       0.018100
     61 H30          6.7940    -3.7400    20.7650 hc         1 JWI       0.075200
     62 H31          7.8700    -3.2150    22.0450 hc         1 JWI       0.075200
     63 H32          4.8700    -3.8540    22.2960 h1         1 JWI       0.031700
     64 H33          6.2060    -4.8920    22.8250 h1         1 JWI       0.031700
     65 H34          7.4950     1.4210    22.9280 hn         1 JWI       0.313500
     66 H35          5.3310    -3.6570    24.5640 ho         1 JWI       0.446000
     67 O14          8.3820     2.5740    20.1420 o          1 JWI      -0.582100
@<TRIPOS>BOND
     1     1    13 ar  
     2     1    17 ar  
     3     1    32 1   
     4     2    18 1   
     5     2    28 1   
     6     2    67 2   
     7     3    19 1   
     8     3    20 1   
     9     3    33 1   
    10     3    34 1   
    11     4     5 1   
    12     4    21 1   
    13     4    35 1   
    14     4    36 1   
    15     5    19 1   
    16     5    37 1   
    17     5    38 1   
    18     6    18 1   
    19     6    22 ar  
    20     6    24 ar  
    21     7    22 ar  
    22     7    23 ar  
    23     7    39 1   
    24     8    25 1   
    25     8    27 1   
    26     8    30 2   
    27     9    10 1   
    28     9    40 1   
    29     9    41 1   
    30     9    42 1   
    31    10    11 1   
    32    10    12 1   
    33    10    13 1   
    34    11    43 1   
    35    11    44 1   
    36    11    45 1   
    37    12    46 1   
    38    12    47 1   
    39    12    48 1   
    40    13    14 ar  
    41    14    15 ar  
    42    14    49 1   
    43    15    16 ar  
    44    15    50 1   
    45    16    17 ar  
    46    16    27 1   
    47    17    51 1   
    48    18    27 1   
    49    18    52 1   
    50    19    28 1   
    51    19    53 1   
    52    20    21 1   
    53    20    54 1   
    54    20    55 1   
    55    21    56 1   
    56    21    57 1   
    57    22    58 1   
    58    23    29 ar  
    59    23    59 1   
    60    24    29 ar  
    61    24    60 1   
    62    25    26 1   
    63    25    61 1   
    64    25    62 1   
    65    26    31 1   
    66    26    63 1   
    67    26    64 1   
    68    28    65 1   
    69    31    66 1   
@<TRIPOS>SUBSTRUCTURE
     1 JWI         1 TEMP              0 ****  ****    0 ROOT
