@<TRIPOS>MOLECULE
JWI
   67    69     1     0     0
SMALL
abcg2


@<TRIPOS>ATOM
      1 C10         10.0990    -1.2000    23.9250 ca         1 JWI      -0.108500
      2 C13          8.1190     1.5130    21.1330 c          1 JWI       0.594100
      3 C17          7.9920     3.9110    23.9120 c6         1 JWI      -0.090900
      4 C20         10.9080     3.5860    24.1560 c6         1 JWI      -0.071900
      5 C21         10.0360     2.4910    23.5500 c6         1 JWI      -0.090900
      6 C22          6.8230     0.4840    19.2910 ca         1 JWI      -0.123300
      7 C24          5.6080     1.4500    17.4680 ca         1 JWI      -0.164000
      8 C28          6.7220    -1.9400    21.1120 c          1 JWI       0.618100
      9 C01         13.8400    -1.4310    23.0920 c3         1 JWI      -0.083433
     10 C02         12.6240    -1.3390    24.0140 c3         1 JWI      -0.001700
     11 C03         12.7770    -0.0860    24.8870 c3         1 JWI      -0.083433
     12 C04         12.6050    -2.5860    24.9070 c3         1 JWI      -0.083433
     13 C05         11.3150    -1.2420    23.2380 ca         1 JWI      -0.057300
     14 C06         11.2640    -1.1730    21.8490 ca         1 JWI      -0.108500
     15 C07         10.0560    -1.0680    21.1700 ca         1 JWI      -0.097500
     16 C08          8.8620    -1.0240    21.8700 ca         1 JWI      -0.070000
     17 C09          8.8920    -1.0860    23.2590 ca         1 JWI      -0.097500
     18 C12          7.1150     0.4040    20.7680 c3         1 JWI       0.094000
     19 C16          8.7830     3.0820    22.9070 c6         1 JWI       0.112700
     20 C18          8.8630     5.0010    24.5280 c6         1 JWI      -0.071900
     21 C19         10.1230     4.4220    25.1610 c6         1 JWI      -0.077400
     22 C23          5.8290     1.3360    18.8310 ca         1 JWI      -0.057000
     23 C25          6.3940     0.6970    16.6090 ca         1 JWI       0.339900
     24 C27          7.5480    -0.2240    18.3410 ca         1 JWI       0.370900
     25 C30          7.1990    -3.3350    21.4600 c3         1 JWI      -0.155400
     26 C31          6.2560    -4.0210    22.4290 c3         1 JWI       0.170600
     27 N11          7.6140    -0.9080    21.1880 n          1 JWI      -0.241400
     28 N15          7.9260     2.0550    22.3400 ns         1 JWI      -0.497900
     29 N26          7.3430    -0.1280    17.0340 nb         1 JWI      -0.671000
     30 O29          5.5840    -1.7520    20.7200 o          1 JWI      -0.591100
     31 O32          6.2440    -3.2840    23.6310 oh         1 JWI      -0.669000
     32 H1          10.0830    -1.2440    25.0070 ha         1 JWI       0.117500
     33 H2           7.1200     4.3520    23.4220 hc         1 JWI       0.046700
     34 H3           7.6150     3.2540    24.7050 hc         1 JWI       0.046700
     35 H4          11.7840     3.1390    24.6320 hc         1 JWI       0.042700
     36 H5          11.2850     4.2350    23.3580 hc         1 JWI       0.042700
     37 H6           9.7390     1.7840    24.3320 hc         1 JWI       0.046700
     38 H7          10.5990     1.9150    22.8120 hc         1 JWI       0.046700
     39 H8           4.8410     2.1050    17.0780 ha         1 JWI       0.121000
     40 H9          14.7470    -1.5030    23.6930 hc         1 JWI       0.036367
     41 H10         13.8010    -2.3140    22.4510 hc         1 JWI       0.036367
     42 H11         13.9410    -0.5510    22.4550 hc         1 JWI       0.036367
     43 H12         11.9590     0.0200    25.6020 hc         1 JWI       0.036367
     44 H13         13.7070    -0.1340    25.4570 hc         1 JWI       0.036367
     45 H14         12.8050     0.8180    24.2760 hc         1 JWI       0.036367
     46 H15         11.7890    -2.5620    25.6300 hc         1 JWI       0.036367
     47 H16         12.5020    -3.4950    24.3120 hc         1 JWI       0.036367
     48 H17         13.5390    -2.6580    25.4690 hc         1 JWI       0.036367
     49 H18         12.1720    -1.2070    21.2630 ha         1 JWI       0.117500
     50 H19         10.0570    -1.0280    20.0890 ha         1 JWI       0.129000
     51 H20          7.9670    -1.0510    23.8190 ha         1 JWI       0.129000
     52 H21          6.1800     0.6040    21.3020 h1         1 JWI       0.070700
     53 H22          9.0900     3.7380    22.0860 h1         1 JWI       0.075700
     54 H23          9.1420     5.7210    23.7510 hc         1 JWI       0.042700
     55 H24          8.2850     5.5570    25.2700 hc         1 JWI       0.042700
     56 H25         10.7480     5.2250    25.5580 hc         1 JWI       0.039700
     57 H26          9.8430     3.7940    26.0140 hc         1 JWI       0.039700
     58 H27          5.2300     1.9070    19.5320 ha         1 JWI       0.114000
     59 H28          6.2490     0.7600    15.5360 h4         1 JWI       0.016100
     60 H29          8.3280    -0.9110    18.6490 h4         1 JWI       0.018100
     61 H30          7.2050    -3.9040    20.5260 hc         1 JWI       0.075200
     62 H31          8.2160    -3.3580    21.8450 hc         1 JWI       0.075200
     63 H32          5.2570    -4.0860    21.9830 h1         1 JWI       0.031700
     64 H33          6.6050    -5.0480    22.5850 h1         1 JWI       0.031700
     65 H34          7.2100     1.6670    22.9350 hn         1 JWI       0.313500
     66 H35          5.5980    -3.6800    24.2240 ho         1 JWI       0.446000
     67 O14          8.9820     1.8720    20.3490 o          1 JWI      -0.582100
@<TRIPOS>BOND
     1     1    13 ar  
     2     1    17 ar  
     3     1    32 1   
     4     2    18 1   
     5     2    28 1   
     6     2    67 2   
     7     3    19 1   
     8     3    20 1   
     9     3    33 1   
    10     3    34 1   
    11     4     5 1   
    12     4    21 1   
    13     4    35 1   
    14     4    36 1   
    15     5    19 1   
    16     5    37 1   
    17     5    38 1   
    18     6    18 1   
    19     6    22 ar  
    20     6    24 ar  
    21     7    22 ar  
    22     7    23 ar  
    23     7    39 1   
    24     8    25 1   
    25     8    27 1   
    26     8    30 2   
    27     9    10 1   
    28     9    40 1   
    29     9    41 1   
    30     9    42 1   
    31    10    11 1   
    32    10    12 1   
    33    10    13 1   
    34    11    43 1   
    35    11    44 1   
    36    11    45 1   
    37    12    46 1   
    38    12    47 1   
    39    12    48 1   
    40    13    14 ar  
    41    14    15 ar  
    42    14    49 1   
    43    15    16 ar  
    44    15    50 1   
    45    16    17 ar  
    46    16    27 1   
    47    17    51 1   
    48    18    27 1   
    49    18    52 1   
    50    19    28 1   
    51    19    53 1   
    52    20    21 1   
    53    20    54 1   
    54    20    55 1   
    55    21    56 1   
    56    21    57 1   
    57    22    58 1   
    58    23    29 ar  
    59    23    59 1   
    60    24    29 ar  
    61    24    60 1   
    62    25    26 1   
    63    25    61 1   
    64    25    62 1   
    65    26    31 1   
    66    26    63 1   
    67    26    64 1   
    68    28    65 1   
    69    31    66 1   
@<TRIPOS>SUBSTRUCTURE
     1 JWI         1 TEMP              0 ****  ****    0 ROOT
