@<TRIPOS>MOLECULE
JWJ
   47    50     1     0     0
SMALL
No Charge or Current Charge


@<TRIPOS>ATOM
      1 C1          93.4780   -12.9810     8.8830 ca         1 JWJ      -0.039200
      2 C2          93.0330   -13.7070     7.7760 ca         1 JWJ      -0.196000
      3 C3          94.6170   -12.2310     8.8280 ca         1 JWJ       0.060400
      4 N4          92.9360   -12.8680    10.1300 na         1 JWJ      -0.258600
      5 C5          93.7520   -13.6770     6.5920 ca         1 JWJ       0.112400
      6 S6          91.6060   -14.7160     7.6620 ss         1 JWJ       0.047800
      7 N7          94.8650   -11.6000    10.0340 nc         1 JWJ      -0.525100
      8 C8          95.3760   -12.1730     7.6450 ca         1 JWJ      -0.045000
      9 C9          93.8260   -12.0070    10.7960 cd         1 JWJ       0.349100
     10 C10         94.9340   -12.9060     6.5160 ca         1 JWJ      -0.083000
     11 N11         93.2470   -14.4250     5.5330 nc         1 JWJ      -0.520100
     12 C12         92.1220   -15.0140     5.9800 cd         1 JWJ       0.384100
     13 S13         93.4470   -11.5820    12.5370 sx         1 JWJ       0.304100
     14 C14         92.2360   -10.2340    12.1260 c3         1 JWJ      -0.073400
     15 O15         92.6850   -12.7170    13.2080 o          1 JWJ      -0.495000
     16 C16         91.7060    -9.5510    13.3760 ca         1 JWJ       0.353300
     17 C17         92.4150    -8.5190    14.0420 ca         1 JWJ      -0.153300
     18 N18         90.4960    -9.9900    13.7840 nb         1 JWJ      -0.654000
     19 C19         91.8060    -7.9300    15.1750 ca         1 JWJ       0.150100
     20 C20         93.8020    -8.0730    13.5590 c3         1 JWJ      -0.043800
     21 C21         89.9510    -9.4430    14.8890 ca         1 JWJ       0.348900
     22 C22         90.5660    -8.4200    15.6260 ca         1 JWJ      -0.136300
     23 O23         92.4130    -6.9020    15.8660 os         1 JWJ      -0.373100
     24 C24         89.8770    -7.8580    16.8670 c3         1 JWJ      -0.035800
     25 C25         92.5320    -5.5900    15.2820 c3         1 JWJ       0.181300
     26 C26         93.4990    -4.7910    16.1740 c3         1 JWJ      -0.106100
     27 C27         91.1310    -4.9490    15.2070 c3         1 JWJ      -0.106100
     28 H1          92.1170   -13.3200    10.5150 hn         1 JWJ       0.388000
     29 H3          96.2840   -11.5770     7.5990 ha         1 JWJ       0.134000
     30 H4          95.5040   -12.8760     5.5910 ha         1 JWJ       0.135000
     31 H5          91.5080   -15.6640     5.3700 h5         1 JWJ       0.060800
     32 H6          92.7470    -9.5090    11.4820 h1         1 JWJ       0.103200
     33 H7          91.4160   -10.6880    11.5590 h1         1 JWJ       0.103200
     34 H9          93.7180    -7.3640    12.7270 hc         1 JWJ       0.047700
     35 H10         94.3790    -7.5880    14.3550 hc         1 JWJ       0.047700
     36 H11         94.4120    -8.9160    13.2190 hc         1 JWJ       0.047700
     37 H12         88.9820    -9.8400    15.1910 h4         1 JWJ       0.024100
     38 H13         89.2900    -6.9660    16.6190 hc         1 JWJ       0.047367
     39 H14         89.1920    -8.5910    17.3100 hc         1 JWJ       0.047367
     40 H15         90.6010    -7.5810    17.6430 hc         1 JWJ       0.047367
     41 H16         92.9530    -5.6410    14.2700 h1         1 JWJ       0.042700
     42 H17         93.6330    -3.7750    15.7820 hc         1 JWJ       0.046367
     43 H18         93.1160    -4.7180    17.1990 hc         1 JWJ       0.046367
     44 H19         94.4820    -5.2760    16.2030 hc         1 JWJ       0.046367
     45 H20         91.1980    -3.9330    14.8020 hc         1 JWJ       0.046367
     46 H21         90.4710    -5.5280    14.5500 hc         1 JWJ       0.046367
     47 H22         90.6730    -4.8920    16.2010 hc         1 JWJ       0.046367
@<TRIPOS>BOND
     1     1     2 ar  
     2     1     3 ar  
     3     1     4 1   
     4     2     5 ar  
     5     2     6 1   
     6     3     7 1   
     7     3     8 ar  
     8     4     9 1   
     9     4    28 1   
    10     5    10 ar  
    11     5    11 1   
    12     6    12 1   
    13     7     9 2   
    14     8    10 ar  
    15     8    29 1   
    16     9    13 1   
    17    10    30 1   
    18    11    12 2   
    19    12    31 1   
    20    13    14 1   
    21    13    15 2   
    22    14    16 1   
    23    14    32 1   
    24    14    33 1   
    25    16    17 ar  
    26    16    18 ar  
    27    17    19 ar  
    28    17    20 1   
    29    18    21 ar  
    30    19    22 ar  
    31    19    23 1   
    32    20    34 1   
    33    20    35 1   
    34    20    36 1   
    35    21    22 ar  
    36    21    37 1   
    37    22    24 1   
    38    23    25 1   
    39    24    38 1   
    40    24    39 1   
    41    24    40 1   
    42    25    26 1   
    43    25    27 1   
    44    25    41 1   
    45    26    42 1   
    46    26    43 1   
    47    26    44 1   
    48    27    45 1   
    49    27    46 1   
    50    27    47 1   
@<TRIPOS>SUBSTRUCTURE
     1 JWJ         1 TEMP              0 ****  ****    0 ROOT
