@<TRIPOS>MOLECULE
JWJ
   47    50     1     0     0
SMALL
abcg2


@<TRIPOS>ATOM
      1 C1          93.3710   -13.0830     8.9470 ca         1 JWJ      -0.039200
      2 C2          93.1660   -13.9020     7.8410 ca         1 JWJ      -0.196000
      3 C3          94.3270   -12.0570     8.9020 ca         1 JWJ       0.060400
      4 N4          92.8180   -13.0120    10.1930 na         1 JWJ      -0.258600
      5 C5          93.9360   -13.6670     6.6940 ca         1 JWJ       0.112400
      6 S6          92.0980   -15.2260     7.5730 ss         1 JWJ       0.047800
      7 N7          94.3470   -11.3950    10.1050 nc         1 JWJ      -0.525100
      8 C8          95.0970   -11.8320     7.7480 ca         1 JWJ      -0.045000
      9 C9          93.4400   -11.9880    10.8180 cd         1 JWJ       0.349100
     10 C10         94.8950   -12.6340     6.6530 ca         1 JWJ      -0.083000
     11 N11         93.6640   -14.5200     5.6510 nc         1 JWJ      -0.520100
     12 C12         92.7490   -15.3610     5.9690 cd         1 JWJ       0.384100
     13 S13         93.0290   -11.5330    12.4910 sx         1 JWJ       0.304100
     14 C14         92.0280   -10.0560    12.0430 c3         1 JWJ      -0.073400
     15 O15         92.0680   -12.5760    12.9820 o          1 JWJ      -0.495000
     16 C16         91.5460    -9.4230    13.3100 ca         1 JWJ       0.353300
     17 C17         92.3260    -8.4720    13.9760 ca         1 JWJ      -0.153300
     18 N18         90.3700    -9.8490    13.7540 nb         1 JWJ      -0.654000
     19 C19         91.7870    -7.9230    15.1440 ca         1 JWJ       0.150100
     20 C20         93.6870    -8.0860    13.4740 c3         1 JWJ      -0.043800
     21 C21         89.9170    -9.3600    14.8980 ca         1 JWJ       0.348900
     22 C22         90.5720    -8.3920    15.6470 ca         1 JWJ      -0.136300
     23 O23         92.4550    -6.9790    15.8420 os         1 JWJ      -0.373100
     24 C24         90.0050    -7.8980    16.9400 c3         1 JWJ      -0.035800
     25 C25         92.5430    -5.6660    15.2480 c3         1 JWJ       0.181300
     26 C26         93.7150    -4.9700    15.9030 c3         1 JWJ      -0.106100
     27 C27         91.2420    -4.9070    15.4220 c3         1 JWJ      -0.106100
     28 H1          92.0960   -13.6000    10.5860 hn         1 JWJ       0.388000
     29 H3          95.8290   -11.0360     7.7300 ha         1 JWJ       0.134000
     30 H4          95.4680   -12.4880     5.7470 ha         1 JWJ       0.135000
     31 H5          92.3770   -16.1290     5.3040 h5         1 JWJ       0.060800
     32 H6          92.6630    -9.4080    11.4410 h1         1 JWJ       0.103200
     33 H7          91.1920   -10.4160    11.4420 h1         1 JWJ       0.103200
     34 H9          93.6280    -7.3930    12.6320 hc         1 JWJ       0.047700
     35 H10         94.2850    -7.6160    14.2510 hc         1 JWJ       0.047700
     36 H11         94.2450    -8.9570    13.1300 hc         1 JWJ       0.047700
     37 H12         88.9630    -9.7460    15.2440 h4         1 JWJ       0.024100
     38 H13         89.7740    -6.8330    16.9030 hc         1 JWJ       0.047367
     39 H14         89.0850    -8.4290    17.1810 hc         1 JWJ       0.047367
     40 H15         90.7020    -8.0470    17.7650 hc         1 JWJ       0.047367
     41 H16         92.7450    -5.7720    14.1760 h1         1 JWJ       0.042700
     42 H17         93.8320    -3.9700    15.4850 hc         1 JWJ       0.046367
     43 H18         93.5610    -4.8670    16.9790 hc         1 JWJ       0.046367
     44 H19         94.6450    -5.5140    15.7360 hc         1 JWJ       0.046367
     45 H20         91.3190    -3.9350    14.9350 hc         1 JWJ       0.046367
     46 H21         90.4010    -5.4340    14.9690 hc         1 JWJ       0.046367
     47 H22         91.0200    -4.7390    16.4770 hc         1 JWJ       0.046367
@<TRIPOS>BOND
     1     1     2 ar  
     2     1     3 ar  
     3     1     4 1   
     4     2     5 ar  
     5     2     6 1   
     6     3     7 1   
     7     3     8 ar  
     8     4     9 1   
     9     4    28 1   
    10     5    10 ar  
    11     5    11 1   
    12     6    12 1   
    13     7     9 2   
    14     8    10 ar  
    15     8    29 1   
    16     9    13 1   
    17    10    30 1   
    18    11    12 2   
    19    12    31 1   
    20    13    14 1   
    21    13    15 2   
    22    14    16 1   
    23    14    32 1   
    24    14    33 1   
    25    16    17 ar  
    26    16    18 ar  
    27    17    19 ar  
    28    17    20 1   
    29    18    21 ar  
    30    19    22 ar  
    31    19    23 1   
    32    20    34 1   
    33    20    35 1   
    34    20    36 1   
    35    21    22 ar  
    36    21    37 1   
    37    22    24 1   
    38    23    25 1   
    39    24    38 1   
    40    24    39 1   
    41    24    40 1   
    42    25    26 1   
    43    25    27 1   
    44    25    41 1   
    45    26    42 1   
    46    26    43 1   
    47    26    44 1   
    48    27    45 1   
    49    27    46 1   
    50    27    47 1   
@<TRIPOS>SUBSTRUCTURE
     1 JWJ         1 TEMP              0 ****  ****    0 ROOT
