@<TRIPOS>MOLECULE
JWK
   37    39     1     0     0
SMALL
abcg2


@<TRIPOS>ATOM
      1 C1          -3.8930    -1.3880     0.0440 c3         1 JWK       0.252300
      2 C2          -3.7440    -2.2780    -1.1890 c3         1 JWK      -0.101600
      3 C3          -2.9880    -0.1570    -0.0540 ca         1 JWK      -0.220300
      4 C7           1.2190    -0.0020    -0.0140 cp         1 JWK       0.383500
      5 C8           0.6090    -1.2720     0.0290 ca         1 JWK      -0.124000
      6 C9          -0.7540    -1.3660     0.0170 ca         1 JWK      -0.087000
      7 C10         -1.5600    -0.2040    -0.0380 ca         1 JWK       0.014000
      8 C11          2.6870     0.1650     0.0170 cp         1 JWK      -0.074500
      9 C12          3.2530     1.3920     0.3730 ca         1 JWK      -0.152000
     10 C13          4.6270     1.5120     0.3950 ca         1 JWK       0.360900
     11 C14          4.9040    -0.6180    -0.2470 ca         1 JWK       0.568200
     12 C15          3.5460    -0.8780    -0.3060 ca         1 JWK      -0.190000
     13 F            5.7490    -1.6030    -0.5620 f          1 JWK      -0.227200
     14 N3           5.4550     0.5130     0.0860 nb         1 JWK      -0.695000
     15 N2           0.4970     1.0910    -0.0720 nb         1 JWK      -0.658000
     16 O           -5.2540    -0.9920     0.0330 oh         1 JWK      -0.661000
     17 C           -3.6390    -2.1710     1.3370 c3         1 JWK      -0.101600
     18 C6          -0.8370     1.0090    -0.0910 ca         1 JWK       0.170000
     19 C5          -1.5670     2.2500    -0.1840 ca         1 JWK       0.659900
     20 N1          -0.8870     3.4070    -0.2010 nv         1 JWK      -1.062900
     21 N           -2.8760     2.2640    -0.2380 nb         1 JWK      -0.774000
     22 C4          -3.5410     1.0930    -0.1720 ca         1 JWK       0.410900
     23 H1          -2.7280    -2.6460    -1.3140 hc         1 JWK       0.044200
     24 H2          -4.4010    -3.1460    -1.1120 hc         1 JWK       0.044200
     25 H3          -4.0070    -1.7270    -2.0920 hc         1 JWK       0.044200
     26 H4           1.2040    -2.1720     0.0850 ha         1 JWK       0.127000
     27 H5          -1.1910    -2.3520     0.0500 ha         1 JWK       0.127000
     28 H6           2.6310     2.2350     0.6350 ha         1 JWK       0.142000
     29 H7           5.0890     2.4500     0.6760 h4         1 JWK       0.028100
     30 H8           3.1950    -1.8530    -0.6130 ha         1 JWK       0.141000
     31 H9          -5.4770    -0.6170     0.8930 ho         1 JWK       0.444000
     32 H10         -2.6450    -2.6070     1.3930 hc         1 JWK       0.044200
     33 H11         -3.7550    -1.5220     2.2080 hc         1 JWK       0.044200
     34 H12         -4.3570    -2.9880     1.4180 hc         1 JWK       0.044200
     35 H13          0.1140     3.3930    -0.2940 hn         1 JWK       0.503000
     36 H14         -1.3740     4.2620    -0.4020 hn         1 JWK       0.503000
     37 H15         -4.6160     1.1960    -0.2230 h4         1 JWK       0.028100
@<TRIPOS>BOND
     1     1     2 1   
     2     1     3 1   
     3     1    16 1   
     4     1    17 1   
     5     2    23 1   
     6     2    24 1   
     7     2    25 1   
     8     3     7 ar  
     9     3    22 ar  
    10     4     5 ar  
    11     4     8 1   
    12     4    15 ar  
    13     5     6 ar  
    14     5    26 1   
    15     6     7 ar  
    16     6    27 1   
    17     7    18 ar  
    18     8     9 ar  
    19     8    12 ar  
    20     9    10 ar  
    21     9    28 1   
    22    10    14 ar  
    23    10    29 1   
    24    11    12 ar  
    25    11    13 1   
    26    11    14 ar  
    27    12    30 1   
    28    15    18 ar  
    29    16    31 1   
    30    17    32 1   
    31    17    33 1   
    32    17    34 1   
    33    18    19 ar  
    34    19    20 1   
    35    19    21 ar  
    36    20    35 1   
    37    20    36 1   
    38    21    22 ar  
    39    22    37 1   
@<TRIPOS>SUBSTRUCTURE
     1 JWK         1 TEMP              0 ****  ****    0 ROOT
