@<TRIPOS>MOLECULE
JWK
   37    39     1     0     0
SMALL
No Charge or Current Charge


@<TRIPOS>ATOM
      1 C1          -3.8910    -1.3860     0.0190 c3         1 JWK       0.252300
      2 C2          -3.7350    -2.2640    -1.2480 c3         1 JWK      -0.101600
      3 C3          -2.9820    -0.1220    -0.0300 ca         1 JWK      -0.220300
      4 C7           1.2700    -0.0060     0.0170 cp         1 JWK       0.383500
      5 C8           0.6250    -1.2610     0.0550 ca         1 JWK      -0.124000
      6 C9          -0.7760    -1.3400     0.0400 ca         1 JWK      -0.087000
      7 C10         -1.5460    -0.1530    -0.0090 ca         1 JWK       0.014000
      8 C11          2.7720     0.1450     0.0320 cp         1 JWK      -0.074500
      9 C12          3.4040     1.3820     0.3360 ca         1 JWK      -0.152000
     10 C13          4.8050     1.4910     0.3410 ca         1 JWK       0.360900
     11 C14          5.0440    -0.7200    -0.2340 ca         1 JWK       0.568200
     12 C15          3.6570    -0.9260    -0.2630 ca         1 JWK      -0.190000
     13 F            5.8940    -1.7300    -0.5160 f          1 JWK      -0.227200
     14 N3           5.6280     0.4580     0.0610 nb         1 JWK      -0.695000
     15 N2           0.5410     1.1290    -0.0290 nb         1 JWK      -0.658000
     16 O           -5.2660    -1.0030     0.0180 oh         1 JWK      -0.661000
     17 C           -3.7200    -2.1920     1.3340 c3         1 JWK      -0.101600
     18 C6          -0.8280     1.0770    -0.0430 ca         1 JWK       0.170000
     19 C5          -1.6170     2.2650    -0.1040 ca         1 JWK       0.659900
     20 N1          -1.1280     3.5190    -0.1550 nv         1 JWK      -1.062900
     21 N           -2.9360     2.3280    -0.1530 nb         1 JWK      -0.774000
     22 C4          -3.6000     1.1560    -0.1160 ca         1 JWK       0.410900
     23 H1          -2.7400    -2.7030    -1.3490 hc         1 JWK       0.044200
     24 H2          -4.4550    -3.0910    -1.2360 hc         1 JWK       0.044200
     25 H3          -3.9240    -1.6680    -2.1490 hc         1 JWK       0.044200
     26 H4           1.2040    -2.1770     0.1070 ha         1 JWK       0.127000
     27 H5          -1.2140    -2.3270     0.0610 ha         1 JWK       0.127000
     28 H6           2.8160     2.2630     0.5770 ha         1 JWK       0.142000
     29 H7           5.2840     2.4410     0.5780 h4         1 JWK       0.028100
     30 H8           3.2910    -1.9120    -0.5280 ha         1 JWK       0.141000
     31 H9          -5.5260    -0.8700     0.9540 ho         1 JWK       0.444000
     32 H10         -2.7530    -2.6920     1.4160 hc         1 JWK       0.044200
     33 H11         -3.8230    -1.5340     2.2060 hc         1 JWK       0.044200
     34 H12         -4.4850    -2.9750     1.4110 hc         1 JWK       0.044200
     35 H13         -0.1570     3.5890    -0.4420 hn         1 JWK       0.503000
     36 H14         -1.7660     4.2070    -0.5320 hn         1 JWK       0.503000
     37 H15         -4.6810     1.2770    -0.1560 h4         1 JWK       0.028100
@<TRIPOS>BOND
     1     1     2 1   
     2     1     3 1   
     3     1    16 1   
     4     1    17 1   
     5     2    23 1   
     6     2    24 1   
     7     2    25 1   
     8     3     7 ar  
     9     3    22 ar  
    10     4     5 ar  
    11     4     8 1   
    12     4    15 ar  
    13     5     6 ar  
    14     5    26 1   
    15     6     7 ar  
    16     6    27 1   
    17     7    18 ar  
    18     8     9 ar  
    19     8    12 ar  
    20     9    10 ar  
    21     9    28 1   
    22    10    14 ar  
    23    10    29 1   
    24    11    12 ar  
    25    11    13 1   
    26    11    14 ar  
    27    12    30 1   
    28    15    18 ar  
    29    16    31 1   
    30    17    32 1   
    31    17    33 1   
    32    17    34 1   
    33    18    19 ar  
    34    19    20 1   
    35    19    21 ar  
    36    20    35 1   
    37    20    36 1   
    38    21    22 ar  
    39    22    37 1   
@<TRIPOS>SUBSTRUCTURE
     1 JWK         1 TEMP              0 ****  ****    0 ROOT
