@<TRIPOS>MOLECULE
JWL
   55    55     1     0     0
SMALL
abcg2


@<TRIPOS>ATOM
      1 C5           8.5240    -5.7310     4.8900 ca         1 JWL      -0.108500
      2 C6           8.1750    -7.0490     5.1520 ca         1 JWL      -0.100500
      3 N1           9.5790    -9.7320     6.3760 ns         1 JWL      -0.496900
      4 C2           7.4240    -6.4210     7.3390 ca         1 JWL      -0.100500
      5 N3           7.3380    -7.5570     1.2500 n1         1 JWL       0.227000
      6 C4           8.3250    -4.7530     5.8560 ca         1 JWL      -0.106000
      7 CA           8.3220    -8.4960    10.8660 c3         1 JWL      -0.005300
      8 C            9.3530    -9.2750    11.6590 c          1 JWL       0.560900
      9 CB           7.0130    -8.3400    11.6540 c3         1 JWL       0.169300
     10 O            9.7420   -10.3710    11.3580 o          1 JWL      -0.491100
     11 OB1          6.1820    -7.5260    10.8580 oh         1 JWL      -0.657000
     12 CB1          7.2300    -7.7400    13.0350 c3         1 JWL      -0.131100
     13 N            8.0670    -9.1040     9.5900 ns         1 JWL      -0.481900
     14 CAO          8.9320    -9.0090     8.5710 c          1 JWL       0.601100
     15 OAR          9.9990    -8.4220     8.6560 o          1 JWL      -0.606100
     16 CAP          8.4580    -9.6460     7.2690 c3         1 JWL       0.042700
     17 C1           7.6250    -7.4130     6.3790 ca         1 JWL      -0.085300
     18 C3           7.7720    -5.1020     7.0810 ca         1 JWL      -0.108500
     19 C8          10.9580   -10.6000     4.5940 c3         1 JWL      -0.154400
     20 C9          10.7510   -10.7490     3.0920 c3         1 JWL      -0.062400
     21 C10          9.9950    -9.5840     2.4650 c3         1 JWL      -0.079400
     22 C11          9.9050    -9.7040     0.9500 c3         1 JWL      -0.079400
     23 C12          9.1760    -8.5470     0.2870 c3         1 JWL       0.166800
     24 N2           7.7550    -8.5370     0.6710 n2         1 JWL      -0.436200
     25 N4           6.8560    -6.6920     1.7870 n1         1 JWL      -0.086000
     26 OC7          8.7710   -11.4310     5.1340 o          1 JWL      -0.613100
     27 H1           8.9430    -5.4680     3.9280 ha         1 JWL       0.109000
     28 H2           8.3220    -7.8030     4.3890 ha         1 JWL       0.114000
     29 H3          10.3420    -9.0940     6.5420 hn         1 JWL       0.341500
     30 H4           6.9830    -6.6810     8.2940 ha         1 JWL       0.114000
     31 H5           8.5920    -3.7240     5.6520 ha         1 JWL       0.110000
     32 H6           8.7390    -7.4910    10.7220 h1         1 JWL       0.100700
     33 H7           9.7460    -8.7490    12.5450 h4         1 JWL      -0.005800
     34 H8           6.5720    -9.3410    11.7730 h1         1 JWL       0.034700
     35 H9           5.3050    -7.5090    11.2560 ho         1 JWL       0.450000
     36 H10          6.2650    -7.5450    13.5060 hc         1 JWL       0.048700
     37 H11          7.7720    -8.4160    13.6950 hc         1 JWL       0.048700
     38 H12          7.7770    -6.7980    12.9800 hc         1 JWL       0.048700
     39 H13          7.2300    -9.6550     9.4780 hn         1 JWL       0.325500
     40 H14          8.0950   -10.6550     7.4850 h1         1 JWL       0.082700
     41 H15          6.4300    -8.9000     7.3510 hc         1 JWL       0.062700
     42 H16          6.9760    -9.3550     5.7530 hc         1 JWL       0.062700
     43 H17          7.6040    -4.3450     7.8360 ha         1 JWL       0.109000
     44 H18         11.5710   -11.4300     4.9600 hc         1 JWL       0.060200
     45 H19         11.5230    -9.6880     4.8030 hc         1 JWL       0.060200
     46 H20         10.2280   -11.6850     2.8810 hc         1 JWL       0.051200
     47 H21         11.7330   -10.8380     2.6210 hc         1 JWL       0.051200
     48 H22         10.4920    -8.6430     2.7260 hc         1 JWL       0.041700
     49 H23          8.9870    -9.5280     2.8860 hc         1 JWL       0.041700
     50 H24          9.4160   -10.6430     0.6770 hc         1 JWL       0.052200
     51 H25         10.9110    -9.7440     0.5240 hc         1 JWL       0.052200
     52 H26          9.2140    -8.6570    -0.7970 h1         1 JWL       0.048700
     53 H27          9.6580    -7.5990     0.5390 h1         1 JWL       0.048700
     54 CAS          7.2800    -8.8450     6.6680 c3         1 JWL      -0.044100
     55 C7           9.6630   -10.6290     5.3780 c          1 JWL       0.601100
@<TRIPOS>BOND
     1     1     2 ar  
     2     1     6 ar  
     3     1    27 1   
     4     2    17 ar  
     5     2    28 1   
     6     3    16 1   
     7     3    29 1   
     8     3    55 1   
     9     4    17 ar  
    10     4    18 ar  
    11     4    30 1   
    12     5    24 1   
    13     5    25 3   
    14     6    18 ar  
    15     6    31 1   
    16     7     8 1   
    17     7     9 1   
    18     7    13 1   
    19     7    32 1   
    20     8    10 2   
    21     8    33 1   
    22     9    11 1   
    23     9    12 1   
    24     9    34 1   
    25    11    35 1   
    26    12    36 1   
    27    12    37 1   
    28    12    38 1   
    29    13    14 1   
    30    13    39 1   
    31    14    15 2   
    32    14    16 1   
    33    16    40 1   
    34    16    54 1   
    35    17    54 1   
    36    18    43 1   
    37    19    20 1   
    38    19    44 1   
    39    19    45 1   
    40    19    55 1   
    41    20    21 1   
    42    20    46 1   
    43    20    47 1   
    44    21    22 1   
    45    21    48 1   
    46    21    49 1   
    47    22    23 1   
    48    22    50 1   
    49    22    51 1   
    50    23    24 1   
    51    23    52 1   
    52    23    53 1   
    53    26    55 2   
    54    41    54 1   
    55    42    54 1   
@<TRIPOS>SUBSTRUCTURE
     1 JWL         1 TEMP              0 ****  ****    0 ROOT
