@<TRIPOS>MOLECULE
JWL
   55    55     1     0     0
SMALL
No Charge or Current Charge


@<TRIPOS>ATOM
      1 C5           8.3070    -5.9120     4.5310 ca         1 JWL      -0.108500
      2 C6           7.9730    -7.2280     4.8930 ca         1 JWL      -0.100500
      3 N1           9.6510    -9.8970     6.2760 ns         1 JWL      -0.496900
      4 C2           7.7180    -6.5320     7.2060 ca         1 JWL      -0.100500
      5 N3           6.9220    -7.3180     1.2890 n1         1 JWL       0.227000
      6 C4           8.3480    -4.9040     5.5080 ca         1 JWL      -0.106000
      7 CA           8.3110    -8.6100    10.9520 c3         1 JWL      -0.005300
      8 C            9.1870    -9.5290    11.8370 c          1 JWL       0.560900
      9 CB           6.9800    -8.2480    11.6670 c3         1 JWL       0.169300
     10 O            9.3500   -10.7310    11.6410 o          1 JWL      -0.491100
     11 OB1          6.0950    -7.6010    10.7440 oh         1 JWL      -0.657000
     12 CB1          7.1710    -7.3240    12.8870 c3         1 JWL      -0.131100
     13 N            8.0910    -9.2070     9.6090 ns         1 JWL      -0.481900
     14 CAO          9.0130    -9.1840     8.5830 c          1 JWL       0.601100
     15 OAR         10.1390    -8.7260     8.7480 o          1 JWL      -0.606100
     16 CAP          8.5240    -9.7820     7.2310 c3         1 JWL       0.042700
     17 C1           7.6890    -7.5520     6.2330 ca         1 JWL      -0.085300
     18 C3           8.0500    -5.2140     6.8460 ca         1 JWL      -0.108500
     19 C8          11.1510   -10.8740     4.5920 c3         1 JWL      -0.154400
     20 C9          10.9070   -10.7320     3.0690 c3         1 JWL      -0.062400
     21 C10         10.0180    -9.5280     2.6880 c3         1 JWL      -0.079400
     22 C11          9.9010    -9.3100     1.1610 c3         1 JWL      -0.079400
     23 C12          9.0260    -8.0990     0.7660 c3         1 JWL       0.166800
     24 N2           7.6220    -8.3300     1.1300 n2         1 JWL      -0.436200
     25 N4           6.2280    -6.4550     1.5520 n1         1 JWL      -0.086000
     26 OC7          9.0890   -11.8980     5.3480 o          1 JWL      -0.613100
     27 H1           8.5310    -5.6730     3.4940 ha         1 JWL       0.109000
     28 H2           7.9300    -7.9970     4.1280 ha         1 JWL       0.114000
     29 H3          10.3610    -9.1720     6.2900 hn         1 JWL       0.341500
     30 H4           7.4820    -6.7560     8.2440 ha         1 JWL       0.114000
     31 H5           8.6050    -3.8850     5.2300 ha         1 JWL       0.110000
     32 H6           8.8810    -7.6820    10.8210 h1         1 JWL       0.100700
     33 H7           9.6910    -9.0210    12.6890 h4         1 JWL      -0.005800
     34 H8           6.5150    -9.1820    12.0140 h1         1 JWL       0.034700
     35 H9           5.2560    -7.4250    11.2240 ho         1 JWL       0.450000
     36 H10          6.2040    -7.0880    13.3500 hc         1 JWL       0.048700
     37 H11          7.7940    -7.8040    13.6500 hc         1 JWL       0.048700
     38 H12          7.6490    -6.3810    12.5940 hc         1 JWL       0.048700
     39 H13          7.1710    -9.5760     9.3950 hn         1 JWL       0.325500
     40 H14          8.1660   -10.7920     7.4680 h1         1 JWL       0.082700
     41 H15          6.4980    -8.9820     7.3320 hc         1 JWL       0.062700
     42 H16          6.9690    -9.5320     5.7450 hc         1 JWL       0.062700
     43 H17          8.0740    -4.4340     7.6030 ha         1 JWL       0.109000
     44 H18         11.7160   -11.7980     4.7590 hc         1 JWL       0.060200
     45 H19         11.7590   -10.0250     4.9300 hc         1 JWL       0.060200
     46 H20         10.4430   -11.6520     2.6910 hc         1 JWL       0.051200
     47 H21         11.8780   -10.6390     2.5660 hc         1 JWL       0.051200
     48 H22         10.4170    -8.6170     3.1530 hc         1 JWL       0.041700
     49 H23          9.0160    -9.6930     3.1010 hc         1 JWL       0.041700
     50 H24          9.5000   -10.2160     0.6880 hc         1 JWL       0.052200
     51 H25         10.9050    -9.1580     0.7470 hc         1 JWL       0.052200
     52 H26          9.1100    -7.9450    -0.3180 h1         1 JWL       0.048700
     53 H27          9.4220    -7.2000     1.2570 h1         1 JWL       0.048700
     54 CAS          7.3360    -8.9870     6.6230 c3         1 JWL      -0.044100
     55 C7           9.8570   -10.9490     5.4140 c          1 JWL       0.601100
@<TRIPOS>BOND
     1     1     2 ar  
     2     1     6 ar  
     3     1    27 1   
     4     2    17 ar  
     5     2    28 1   
     6     3    16 1   
     7     3    29 1   
     8     3    55 1   
     9     4    17 ar  
    10     4    18 ar  
    11     4    30 1   
    12     5    24 1   
    13     5    25 3   
    14     6    18 ar  
    15     6    31 1   
    16     7     8 1   
    17     7     9 1   
    18     7    13 1   
    19     7    32 1   
    20     8    10 2   
    21     8    33 1   
    22     9    11 1   
    23     9    12 1   
    24     9    34 1   
    25    11    35 1   
    26    12    36 1   
    27    12    37 1   
    28    12    38 1   
    29    13    14 1   
    30    13    39 1   
    31    14    15 2   
    32    14    16 1   
    33    16    40 1   
    34    16    54 1   
    35    17    54 1   
    36    18    43 1   
    37    19    20 1   
    38    19    44 1   
    39    19    45 1   
    40    19    55 1   
    41    20    21 1   
    42    20    46 1   
    43    20    47 1   
    44    21    22 1   
    45    21    48 1   
    46    21    49 1   
    47    22    23 1   
    48    22    50 1   
    49    22    51 1   
    50    23    24 1   
    51    23    52 1   
    52    23    53 1   
    53    26    55 2   
    54    41    54 1   
    55    42    54 1   
@<TRIPOS>SUBSTRUCTURE
     1 JWL         1 TEMP              0 ****  ****    0 ROOT
