@<TRIPOS>MOLECULE
JWN
   66    70     1     0     0
SMALL
bcc


@<TRIPOS>ATOM
      1 C1           6.3050     3.1820    -0.0910 c6         1 JWN       0.143300
      2 C2           7.2200     1.9740     0.0080 c6         1 JWN       0.096000
      3 C3           6.5760    -0.2950    -0.6020 c          1 JWN       0.679100
      4 C4           5.7390    -1.5690    -0.3480 c3         1 JWN      -0.076700
      5 C5           5.9580    -2.5490    -1.5120 c3         1 JWN      -0.079100
      6 C6           6.2580    -2.2530     0.9250 c3         1 JWN      -0.079100
      7 C7           4.2530    -1.2510    -0.3260 ca         1 JWN      -0.046300
      8 C8           3.7240    -0.3850    -1.2840 ca         1 JWN      -0.137500
      9 C9           2.3720    -0.1050    -1.3290 ca         1 JWN      -0.086000
     10 C10          1.4940    -0.7030    -0.4260 ca         1 JWN      -0.153600
     11 C11          0.0530    -0.3390    -0.5100 c          1 JWN       0.690700
     12 C12         -2.1920    -1.0650     0.0830 cc         1 JWN       0.212200
     13 C13         -2.9770    -0.0250    -0.3590 cd         1 JWN      -0.239100
     14 C15         -6.6030    -0.3520     0.1530 cc         1 JWN      -0.082000
     15 C17         -9.0420    -0.3660    -0.3850 ca         1 JWN      -0.241300
     16 N1           6.4410     0.7640     0.2280 n          1 JWN      -0.475800
     17 O1           7.3660    -0.2700    -1.5360 o          1 JWN      -0.606100
     18 C26          5.5950     0.8840     1.4020 c6         1 JWN       0.096000
     19 C27          4.7000     2.1070     1.2950 c6         1 JWN       0.143300
     20 N            5.4840     3.3080     1.0960 n3         1 JWN      -0.714600
     21 C            4.6490     4.4860     1.0470 c3         1 JWN       0.151100
     22 C25          3.3730    -1.8430     0.5750 ca         1 JWN      -0.137500
     23 C24          2.0130    -1.5730     0.5280 ca         1 JWN      -0.086000
     24 O           -0.3180     0.6910    -1.0480 o          1 JWN      -0.589100
     25 N2          -0.8200    -1.2230     0.0320 ns         1 JWN      -0.450100
     26 N5          -2.9220    -2.0540     0.6450 nc         1 JWN      -0.336600
     27 C23         -4.1760    -1.6510     0.5660 cd         1 JWN      -0.006300
     28 N3          -4.2560    -0.4110    -0.0390 na         1 JWN       0.037700
     29 C22         -5.3700    -2.2680     0.9830 cd         1 JWN      -0.100000
     30 C21         -6.5570    -1.6310     0.7740 cc         1 JWN      -0.107000
     31 C14         -5.4340     0.2310    -0.2440 cd         1 JWN      -0.051300
     32 C16         -7.8820     0.3400    -0.0730 ca         1 JWN       0.013000
     33 C20         -7.9890     1.7270     0.0140 ca         1 JWN      -0.241300
     34 C19         -9.2160     2.3260    -0.2190 ca         1 JWN       0.403200
     35 N4         -10.3210     1.6520    -0.5180 nb         1 JWN      -0.660000
     36 C18        -10.2220     0.3310    -0.5950 ca         1 JWN       0.403200
     37 H1           6.9200     4.0780    -0.1970 h1         1 JWN       0.041700
     38 H2           5.6930     3.0990    -1.0070 h1         1 JWN       0.041700
     39 H3           7.8090     1.8770    -0.8980 h1         1 JWN       0.060950
     40 H4           7.9120     2.1080     0.8460 h1         1 JWN       0.060950
     41 H5           7.0020    -2.8510    -1.5860 hc         1 JWN       0.045367
     42 H6           5.3630    -3.4460    -1.3340 hc         1 JWN       0.045367
     43 H7           5.6550    -2.1310    -2.4700 hc         1 JWN       0.045367
     44 H8           6.0620    -1.6980     1.8390 hc         1 JWN       0.045367
     45 H9           5.8120    -3.2420     1.0370 hc         1 JWN       0.045367
     46 H10          7.3360    -2.3970     0.8500 hc         1 JWN       0.045367
     47 H11          4.3740     0.0890    -2.0100 ha         1 JWN       0.142500
     48 H12          1.9930     0.5800    -2.0750 ha         1 JWN       0.144500
     49 H13         -2.7660     0.9080    -0.8460 h4         1 JWN       0.209000
     50 H15          4.9680     0.0120     1.5370 h1         1 JWN       0.060950
     51 H16          6.2320     0.9690     2.2880 h1         1 JWN       0.060950
     52 H17          3.9740     1.9480     0.4780 h1         1 JWN       0.041700
     53 H18          4.1290     2.1990     2.2220 h1         1 JWN       0.041700
     54 H20          3.9360     4.4760     0.2070 h1         1 JWN       0.033033
     55 H21          4.0740     4.5740     1.9700 h1         1 JWN       0.033033
     56 H22          5.2660     5.3800     0.9500 h1         1 JWN       0.033033
     57 H23          3.7390    -2.5100     1.3440 ha         1 JWN       0.142500
     58 H24          1.3790    -2.0390     1.2720 ha         1 JWN       0.144500
     59 H25         -0.4840    -2.1010     0.3970 hn         1 JWN       0.340500
     60 H26         -5.3200    -3.2330     1.4670 ha         1 JWN       0.163000
     61 H27         -7.4760    -2.0950     1.1070 ha         1 JWN       0.146000
     62 H28         -5.3780     1.1870    -0.7450 h4         1 JWN       0.169000
     63 H29         -7.1390     2.3420     0.2790 ha         1 JWN       0.142500
     64 H30         -9.3090     3.4050    -0.1510 h4         1 JWN       0.021100
     65 H31        -11.1270    -0.2110    -0.8430 h4         1 JWN       0.021100
     66 H14         -9.0360    -1.4430    -0.4850 ha         1 JWN       0.142500
@<TRIPOS>BOND
     1     1     2 1   
     2     1    20 1   
     3     1    37 1   
     4     1    38 1   
     5     2    16 1   
     6     2    39 1   
     7     2    40 1   
     8     3     4 1   
     9     3    16 1   
    10     3    17 2   
    11     4     5 1   
    12     4     6 1   
    13     4     7 1   
    14     5    41 1   
    15     5    42 1   
    16     5    43 1   
    17     6    44 1   
    18     6    45 1   
    19     6    46 1   
    20     7     8 ar  
    21     7    22 ar  
    22     8     9 ar  
    23     8    47 1   
    24     9    10 ar  
    25     9    48 1   
    26    10    11 1   
    27    10    23 ar  
    28    11    24 2   
    29    11    25 1   
    30    12    13 2   
    31    12    25 1   
    32    12    26 1   
    33    13    28 1   
    34    13    49 1   
    35    14    30 1   
    36    14    31 2   
    37    14    32 1   
    38    15    32 ar  
    39    15    36 ar  
    40    15    66 1   
    41    16    18 1   
    42    18    19 1   
    43    18    50 1   
    44    18    51 1   
    45    19    20 1   
    46    19    52 1   
    47    19    53 1   
    48    20    21 1   
    49    21    54 1   
    50    21    55 1   
    51    21    56 1   
    52    22    23 ar  
    53    22    57 1   
    54    23    58 1   
    55    25    59 1   
    56    26    27 2   
    57    27    28 1   
    58    27    29 1   
    59    28    31 1   
    60    29    30 2   
    61    29    60 1   
    62    30    61 1   
    63    31    62 1   
    64    32    33 ar  
    65    33    34 ar  
    66    33    63 1   
    67    34    35 ar  
    68    34    64 1   
    69    35    36 ar  
    70    36    65 1   
@<TRIPOS>SUBSTRUCTURE
     1 JWN         1 TEMP              0 ****  ****    0 ROOT
