@<TRIPOS>MOLECULE
JWN
   66    70     1     0     0
SMALL
No Charge or Current Charge


@<TRIPOS>ATOM
      1 C1           6.5620     3.1480     0.3800 c6         1 JWN       0.143300
      2 C2           7.4140     1.8680     0.6100 c6         1 JWN       0.096000
      3 C3           6.5790    -0.2130    -0.5820 c          1 JWN       0.612100
      4 C4           5.7750    -1.5660    -0.5850 c3         1 JWN      -0.076700
      5 C5           6.0940    -2.3860    -1.8720 c3         1 JWN      -0.079100
      6 C6           6.2340    -2.4290     0.6320 c3         1 JWN      -0.079100
      7 C7           4.2550    -1.2740    -0.6170 ca         1 JWN      -0.046300
      8 C8           3.7600    -0.2870    -1.4940 ca         1 JWN      -0.119500
      9 C9           2.3910     0.0200    -1.5420 ca         1 JWN      -0.068000
     10 C10          1.4650    -0.6560    -0.7180 ca         1 JWN      -0.153600
     11 C11         -0.0070    -0.2910    -0.7990 c          1 JWN       0.623700
     12 C12         -2.2230    -0.8720     0.1790 cc         1 JWN       0.212200
     13 C13         -3.0650    -0.0210    -0.4990 cd         1 JWN      -0.289100
     14 C15         -6.6100    -0.2720     0.3680 cc         1 JWN      -0.082000
     15 C17         -9.1280    -0.3890     0.2440 ca         1 JWN      -0.158000
     16 N1           6.5690     0.6400     0.5570 n          1 JWN      -0.408800
     17 O1           7.2740     0.0960    -1.5450 o          1 JWN      -0.606100
     18 C26          5.4500     0.7260     1.5420 c6         1 JWN       0.096000
     19 C27          4.5950     2.0030     1.3130 c6         1 JWN       0.143300
     20 N            5.4290     3.2400     1.3470 n3         1 JWN      -0.714600
     21 C            4.6280     4.4710     1.1720 c3         1 JWN       0.151100
     22 C25          3.3290    -1.9640     0.1960 ca         1 JWN      -0.119500
     23 C24          1.9570    -1.6600     0.1510 ca         1 JWN      -0.068000
     24 O           -0.4080     0.5750    -1.5660 o          1 JWN      -0.589100
     25 N2          -0.8570    -0.9880     0.0360 ns         1 JWN      -0.383100
     26 N5          -2.8680    -1.6810     1.0840 nc         1 JWN      -0.336600
     27 C23         -4.1400    -1.3410     0.9820 cd         1 JWN      -0.057000
     28 N3          -4.2740    -0.3450     0.0560 na         1 JWN       0.139100
     29 C22         -5.2550    -1.8790     1.6790 cd         1 JWN      -0.082000
     30 C21         -6.4800    -1.3350     1.3550 cc         1 JWN      -0.089000
     31 C14         -5.4930     0.2150    -0.3260 cd         1 JWN      -0.084000
     32 C16         -7.9210     0.2860    -0.0440 ca         1 JWN       0.013000
     33 C20         -8.0500     1.5170    -0.7310 ca         1 JWN      -0.158000
     34 C19         -9.3210     1.9940    -1.0900 ca         1 JWN       0.337900
     35 N4         -10.4650     1.3330    -0.8120 nb         1 JWN      -0.660000
     36 C18        -10.3580     0.1590    -0.1540 ca         1 JWN       0.337900
     37 H1           7.2160     4.0280     0.4720 h1         1 JWN       0.041700
     38 H2           6.1810     3.1350    -0.6520 h1         1 JWN       0.041700
     39 H3           8.2250     1.8280    -0.1290 h1         1 JWN       0.060950
     40 H4           7.8890     1.9280     1.5990 h1         1 JWN       0.060950
     41 H5           7.1610    -2.6350    -1.9280 hc         1 JWN       0.045367
     42 H6           5.5280    -3.3250    -1.8850 hc         1 JWN       0.045367
     43 H7           5.8290    -1.8270    -2.7780 hc         1 JWN       0.045367
     44 H8           5.9400    -1.9950     1.5930 hc         1 JWN       0.045367
     45 H9           5.8180    -3.4420     0.5810 hc         1 JWN       0.045367
     46 H10          7.3270    -2.5270     0.6380 hc         1 JWN       0.045367
     47 H11          4.4390     0.2540    -2.1480 ha         1 JWN       0.124500
     48 H12          2.0530     0.7930    -2.2290 ha         1 JWN       0.126500
     49 H13         -2.9080     0.7270    -1.2660 h4         1 JWN       0.259000
     50 H15          4.7960    -0.1490     1.5150 h1         1 JWN       0.060950
     51 H16          5.8770     0.7630     2.5540 h1         1 JWN       0.060950
     52 H17          4.0830     1.9150     0.3440 h1         1 JWN       0.041700
     53 H18          3.8150     2.0470     2.0870 h1         1 JWN       0.041700
     54 H20          4.1480     4.4900     0.1840 h1         1 JWN       0.033033
     55 H21          3.8440     4.5360     1.9380 h1         1 JWN       0.033033
     56 H22          5.2630     5.3630     1.2630 h1         1 JWN       0.033033
     57 H23          3.6530    -2.7450     0.8780 ha         1 JWN       0.124500
     58 H24          1.2930    -2.2210     0.8030 ha         1 JWN       0.126500
     59 H25         -0.4030    -1.6730     0.6190 hn         1 JWN       0.340500
     60 H26         -5.1500    -2.6680     2.4160 ha         1 JWN       0.145000
     61 H27         -7.3590    -1.7030     1.8710 ha         1 JWN       0.128000
     62 H28         -5.4710     0.9500    -1.1170 h4         1 JWN       0.151000
     63 H29         -7.1950     2.1370    -0.9710 ha         1 JWN       0.124500
     64 H30         -9.4270     2.9450    -1.6110 h4         1 JWN       0.021100
     65 H31        -11.2910    -0.3630     0.0580 h4         1 JWN       0.021100
     66 H14         -9.1410    -1.3480     0.7490 ha         1 JWN       0.124500
@<TRIPOS>BOND
     1     1     2 1   
     2     1    20 1   
     3     1    37 1   
     4     1    38 1   
     5     2    16 1   
     6     2    39 1   
     7     2    40 1   
     8     3     4 1   
     9     3    16 1   
    10     3    17 2   
    11     4     5 1   
    12     4     6 1   
    13     4     7 1   
    14     5    41 1   
    15     5    42 1   
    16     5    43 1   
    17     6    44 1   
    18     6    45 1   
    19     6    46 1   
    20     7     8 ar  
    21     7    22 ar  
    22     8     9 ar  
    23     8    47 1   
    24     9    10 ar  
    25     9    48 1   
    26    10    11 1   
    27    10    23 ar  
    28    11    24 2   
    29    11    25 1   
    30    12    13 2   
    31    12    25 1   
    32    12    26 1   
    33    13    28 1   
    34    13    49 1   
    35    14    30 1   
    36    14    31 2   
    37    14    32 1   
    38    15    32 ar  
    39    15    36 ar  
    40    15    66 1   
    41    16    18 1   
    42    18    19 1   
    43    18    50 1   
    44    18    51 1   
    45    19    20 1   
    46    19    52 1   
    47    19    53 1   
    48    20    21 1   
    49    21    54 1   
    50    21    55 1   
    51    21    56 1   
    52    22    23 ar  
    53    22    57 1   
    54    23    58 1   
    55    25    59 1   
    56    26    27 2   
    57    27    28 1   
    58    27    29 1   
    59    28    31 1   
    60    29    30 2   
    61    29    60 1   
    62    30    61 1   
    63    31    62 1   
    64    32    33 ar  
    65    33    34 ar  
    66    33    63 1   
    67    34    35 ar  
    68    34    64 1   
    69    35    36 ar  
    70    36    65 1   
@<TRIPOS>SUBSTRUCTURE
     1 JWN         1 TEMP              0 ****  ****    0 ROOT
