@<TRIPOS>MOLECULE
JWQ
   34    35     1     0     0
SMALL
abcg2


@<TRIPOS>ATOM
      1 C01        -21.7590    13.8660   -16.8170 c3         1 JWQ       0.142900
      2 O02        -21.9550    12.9690   -15.7220 os         1 JWQ      -0.326100
      3 C03        -22.2970    13.4960   -14.5240 ca         1 JWQ       0.103100
      4 C04        -22.4620    12.5620   -13.4700 ca         1 JWQ       0.157100
      5 O05        -22.2680    11.2640   -13.7680 oh         1 JWQ      -0.502100
      6 C06        -22.8070    13.0050   -12.1980 ca         1 JWQ      -0.199000
      7 C07        -22.9880    14.3540   -11.9560 ca         1 JWQ      -0.047000
      8 C08        -22.8360    15.2980   -12.9850 ca         1 JWQ      -0.122800
      9 C09        -22.4850    14.8390   -14.2760 ca         1 JWQ      -0.120000
     10 C10        -23.0440    16.6690   -12.6370 ce         1 JWQ       0.029800
     11 C11        -23.0160    17.8170   -13.3770 cf         1 JWQ      -0.134900
     12 C12        -22.7680    17.8660   -14.7710 ch         1 JWQ       0.286700
     13 N13        -22.5760    17.9720   -15.9050 n1         1 JWQ      -0.450000
     14 C14        -23.2630    19.0970   -12.6720 c          1 JWQ       0.630300
     15 O15        -23.4700    19.1710   -11.4680 o          1 JWQ      -0.576100
     16 N16        -23.2430    20.2330   -13.4490 ns         1 JWQ      -0.461400
     17 C17        -23.4080    21.4950   -12.9500 cc         1 JWQ       0.518300
     18 N18        -23.3630    22.5470   -13.7290 nd         1 JWQ      -0.386000
     19 N19        -23.5340    23.7030   -13.0360 nd         1 JWQ      -0.234000
     20 C20        -23.7020    23.5060   -11.7680 cc         1 JWQ       0.218700
     21 S21        -23.6740    21.8430   -11.2710 ss         1 JWQ      -0.088800
     22 C22        -23.8990    24.6350   -10.7970 c3         1 JWQ       0.286700
     23 F23        -22.9370    24.6410    -9.8500 f          1 JWQ      -0.096333
     24 F24        -25.0780    24.5240   -10.1490 f          1 JWQ      -0.096333
     25 F25        -23.8780    25.8260   -11.4060 f          1 JWQ      -0.096333
     26 H1         -21.4900    13.2420   -17.6650 h1         1 JWQ       0.048700
     27 H2         -22.6760    14.4170   -17.0380 h1         1 JWQ       0.048700
     28 H3         -20.9500    14.5690   -16.6030 h1         1 JWQ       0.048700
     29 H4         -22.4070    10.7140   -12.9820 ho         1 JWQ       0.469000
     30 H5         -22.9290    12.2800   -11.4030 ha         1 JWQ       0.126000
     31 H6         -23.2540    14.6880   -10.9610 ha         1 JWQ       0.123000
     32 H7         -22.3550    15.5410   -15.0820 ha         1 JWQ       0.133000
     33 H8         -23.2670    16.8410   -11.5890 ha         1 JWQ       0.205000
     34 H9         -23.0780    20.1750   -14.4460 hn         1 JWQ       0.360500
@<TRIPOS>BOND
     1     1     2 1   
     2     1    26 1   
     3     1    27 1   
     4     1    28 1   
     5     2     3 1   
     6     3     4 ar  
     7     3     9 ar  
     8     4     5 1   
     9     4     6 ar  
    10     5    29 1   
    11     6     7 ar  
    12     6    30 1   
    13     7     8 ar  
    14     7    31 1   
    15     8     9 ar  
    16     8    10 1   
    17     9    32 1   
    18    10    11 2   
    19    10    33 1   
    20    11    12 1   
    21    11    14 1   
    22    12    13 3   
    23    14    15 2   
    24    14    16 1   
    25    16    17 1   
    26    16    34 1   
    27    17    18 2   
    28    17    21 1   
    29    18    19 1   
    30    19    20 2   
    31    20    21 1   
    32    20    22 1   
    33    22    23 1   
    34    22    24 1   
    35    22    25 1   
@<TRIPOS>SUBSTRUCTURE
     1 JWQ         1 TEMP              0 ****  ****    0 ROOT
