@<TRIPOS>MOLECULE
JWQ
   34    35     1     0     0
SMALL
No Charge or Current Charge


@<TRIPOS>ATOM
      1 C01        -20.9790    14.0750   -16.6790 c3         1 JWQ       0.142900
      2 O02        -21.5420    13.1120   -15.7690 os         1 JWQ      -0.326100
      3 C03        -22.1220    13.4750   -14.5630 ca         1 JWQ       0.103100
      4 C04        -22.6720    12.4640   -13.7380 ca         1 JWQ       0.157100
      5 O05        -22.6380    11.1500   -14.1200 oh         1 JWQ      -0.502100
      6 C06        -23.2590    12.8030   -12.5070 ca         1 JWQ      -0.199000
      7 C07        -23.3090    14.1430   -12.0920 ca         1 JWQ      -0.047000
      8 C08        -22.7800    15.1620   -12.9060 ca         1 JWQ      -0.122800
      9 C09        -22.1750    14.8230   -14.1350 ca         1 JWQ      -0.120000
     10 C10        -22.8390    16.5780   -12.4320 ce         1 JWQ       0.029800
     11 C11        -23.1930    17.7130   -13.1140 cf         1 JWQ      -0.134900
     12 C12        -23.6040    17.6600   -14.4820 ch         1 JWQ       0.286700
     13 N13        -23.9400    17.6670   -15.5990 n1         1 JWQ      -0.450000
     14 C14        -23.1870    19.0480   -12.4250 c          1 JWQ       0.630300
     15 O15        -22.8580    19.1540   -11.2530 o          1 JWQ      -0.576100
     16 N16        -23.5660    20.1420   -13.1720 ns         1 JWQ      -0.461400
     17 C17        -23.6500    21.4620   -12.7980 cc         1 JWQ       0.518300
     18 N18        -24.0430    22.3490   -13.6980 nd         1 JWQ      -0.386000
     19 N19        -24.0820    23.6340   -13.1890 nd         1 JWQ      -0.234000
     20 C20        -23.7150    23.6750   -11.9140 cc         1 JWQ       0.218700
     21 S21        -23.2890    22.1330   -11.2300 ss         1 JWQ      -0.088800
     22 C22        -23.6540    24.9350   -11.0760 c3         1 JWQ       0.286700
     23 F23        -22.4040    25.1580   -10.6080 f          1 JWQ      -0.096333
     24 F24        -24.4730    24.8560   -10.0030 f          1 JWQ      -0.096333
     25 F25        -24.0190    26.0390   -11.7720 f          1 JWQ      -0.096333
     26 H1         -20.5860    13.5710   -17.5700 h1         1 JWQ       0.048700
     27 H2         -21.7390    14.7970   -17.0040 h1         1 JWQ       0.048700
     28 H3         -20.1520    14.6210   -16.2070 h1         1 JWQ       0.048700
     29 H4         -23.0630    10.6110   -13.4200 ho         1 JWQ       0.469000
     30 H5         -23.6790    12.0320   -11.8650 ha         1 JWQ       0.126000
     31 H6         -23.7680    14.3920   -11.1360 ha         1 JWQ       0.123000
     32 H7         -21.7390    15.6110   -14.7410 ha         1 JWQ       0.133000
     33 H8         -22.5790    16.6770   -11.3760 ha         1 JWQ       0.205000
     34 H9         -23.8180    19.9440   -14.1290 hn         1 JWQ       0.360500
@<TRIPOS>BOND
     1     1     2 1   
     2     1    26 1   
     3     1    27 1   
     4     1    28 1   
     5     2     3 1   
     6     3     4 ar  
     7     3     9 ar  
     8     4     5 1   
     9     4     6 ar  
    10     5    29 1   
    11     6     7 ar  
    12     6    30 1   
    13     7     8 ar  
    14     7    31 1   
    15     8     9 ar  
    16     8    10 1   
    17     9    32 1   
    18    10    11 2   
    19    10    33 1   
    20    11    12 1   
    21    11    14 1   
    22    12    13 3   
    23    14    15 2   
    24    14    16 1   
    25    16    17 1   
    26    16    34 1   
    27    17    18 2   
    28    17    21 1   
    29    18    19 1   
    30    19    20 2   
    31    20    21 1   
    32    20    22 1   
    33    22    23 1   
    34    22    24 1   
    35    22    25 1   
@<TRIPOS>SUBSTRUCTURE
     1 JWQ         1 TEMP              0 ****  ****    0 ROOT
