@<TRIPOS>MOLECULE
JWR
   37    40     1     0     0
SMALL
bcc


@<TRIPOS>ATOM
      1 C10         94.1310    -9.9420    12.3040 cc         1 JWR       0.092600
      2 C11         95.5390   -10.1540    12.2540 cc         1 JWR      -0.224000
      3 C13         93.3140   -10.5490    11.3800 cd         1 JWR      -0.148000
      4 C17         94.4720   -12.6360     8.8360 cc         1 JWR       0.594900
      5 C19         94.3790   -13.5120     7.6670 ca         1 JWR      -0.110900
      6 C20         95.5080   -14.1730     7.1800 ca         1 JWR      -0.089500
      7 C21         95.4120   -14.9980     6.0710 ca         1 JWR      -0.141500
      8 C22         94.1900   -15.1710     5.4320 ca         1 JWR      -0.112000
      9 C23         93.0640   -14.5160     5.9120 ca         1 JWR      -0.141500
     10 C24         93.1560   -13.6920     7.0230 ca         1 JWR      -0.089500
     11 C25         92.4070    -8.8410    13.6880 c          1 JWR       0.688700
     12 C1          92.3090    -7.8550    14.8190 ca         1 JWR      -0.114600
     13 C2          91.8840    -8.2530    16.0780 ca         1 JWR      -0.061900
     14 C3          91.7660    -7.2740    17.0640 ca         1 JWR       0.510300
     15 N4          92.0140    -6.0070    16.8520 nb         1 JWR      -0.643000
     16 C5          92.4140    -5.6250    15.6470 ca         1 JWR       0.421200
     17 C6          92.5860    -6.5130    14.6010 ca         1 JWR      -0.220300
     18 CL7         91.2740    -7.7180    18.6540 cl         1 JWR      -0.124000
     19 CL8         91.5490    -9.8990    16.4110 cl         1 JWR      -0.034400
     20 N9          93.6840    -9.1000    13.3180 ns         1 JWR      -0.462100
     21 C12         96.0890   -10.9510    11.3070 cd         1 JWR      -0.008300
     22 C14         93.9130   -11.3650    10.4070 cd         1 JWR       0.014700
     23 N15         95.2700   -11.5420    10.4080 na         1 JWR       0.180000
     24 N16         95.6310   -12.3530     9.4090 nd         1 JWR      -0.599100
     25 N18         93.3970   -12.0600     9.4050 nc         1 JWR      -0.397300
     26 O26         91.4140    -9.3110    13.1820 o          1 JWR      -0.528100
     27 H30         96.1900    -9.6800    12.9760 ha         1 JWR       0.151000
     28 H32         92.2450   -10.4260    11.3620 ha         1 JWR       0.197000
     29 H33         96.4640   -14.0450     7.6710 ha         1 JWR       0.149000
     30 H34         96.2930   -15.5060     5.7040 ha         1 JWR       0.132500
     31 H35         94.1160   -15.8150     4.5650 ha         1 JWR       0.130000
     32 H36         92.1090   -14.6460     5.4200 ha         1 JWR       0.132500
     33 H37         92.2750   -13.1820     7.3920 ha         1 JWR       0.149000
     34 H27         92.6080    -4.5680    15.5130 h4         1 JWR       0.037100
     35 H28         92.9220    -6.1650    13.6330 ha         1 JWR       0.158000
     36 H29         94.4090    -8.6720    13.8780 hn         1 JWR       0.328500
     37 H31         97.1460   -11.1500    11.2200 h4         1 JWR       0.182000
@<TRIPOS>BOND
     1     1     2 1   
     2     1     3 2   
     3     1    20 1   
     4     2    21 2   
     5     2    27 1   
     6     3    22 1   
     7     3    28 1   
     8     4     5 1   
     9     4    24 2   
    10     4    25 1   
    11     5     6 ar  
    12     5    10 ar  
    13     6     7 ar  
    14     6    29 1   
    15     7     8 ar  
    16     7    30 1   
    17     8     9 ar  
    18     8    31 1   
    19     9    10 ar  
    20     9    32 1   
    21    10    33 1   
    22    11    12 1   
    23    11    20 1   
    24    11    26 2   
    25    12    13 ar  
    26    12    17 ar  
    27    13    14 ar  
    28    13    19 1   
    29    14    15 ar  
    30    14    18 1   
    31    15    16 ar  
    32    16    17 ar  
    33    16    34 1   
    34    17    35 1   
    35    20    36 1   
    36    21    23 1   
    37    21    37 1   
    38    22    23 1   
    39    22    25 2   
    40    23    24 1   
@<TRIPOS>SUBSTRUCTURE
     1 JWR         1 TEMP              0 ****  ****    0 ROOT
