@<TRIPOS>MOLECULE
JWR
   37    40     1     0     0
SMALL
No Charge or Current Charge


@<TRIPOS>ATOM
      1 C10         94.1370    -9.9560    12.2960 cc         1 JWR       0.092600
      2 C11         95.5650    -9.9510    12.0630 cc         1 JWR      -0.206000
      3 C13         93.3250   -10.7020    11.4540 cd         1 JWR      -0.130000
      4 C17         94.5720   -12.6010     8.7810 cc         1 JWR       0.594900
      5 C19         94.4170   -13.5070     7.6250 ca         1 JWR      -0.110900
      6 C20         95.5480   -13.9330     6.8870 ca         1 JWR      -0.071500
      7 C21         95.4060   -14.7950     5.7850 ca         1 JWR      -0.123500
      8 C22         94.1350   -15.2460     5.4010 ca         1 JWR      -0.094000
      9 C23         93.0030   -14.8330     6.1200 ca         1 JWR      -0.123500
     10 C24         93.1400   -13.9720     7.2230 ca         1 JWR      -0.071500
     11 C25         92.3900    -9.0340    13.8830 c          1 JWR       0.621700
     12 C1          92.2740    -7.9770    14.9650 ca         1 JWR      -0.114600
     13 C2          91.2740    -8.0170    15.9760 ca         1 JWR       0.095000
     14 C3          91.2350    -6.9750    16.9360 ca         1 JWR       0.445000
     15 N4          92.0930    -5.9290    16.9530 nb         1 JWR      -0.643000
     16 C5          93.0420    -5.8880    15.9940 ca         1 JWR       0.355900
     17 C6          93.1680    -6.8740    15.0000 ca         1 JWR      -0.137000
     18 Cl7         90.0330    -6.9670    18.2260 cl         1 JWR      -0.124000
     19 Cl8         90.1170    -9.3530    16.1140 cl         1 JWR      -0.126000
     20 N9          93.6650    -9.1890    13.3600 ns         1 JWR      -0.395100
     21 C12         96.2000   -10.6580    11.0430 cd         1 JWR      -0.041000
     22 C14         93.9880   -11.4200    10.4170 cd         1 JWR      -0.036000
     23 N15         95.3410   -11.3960    10.2330 na         1 JWR       0.281400
     24 N16         95.7580   -12.1460     9.1850 nd         1 JWR      -0.599100
     25 N18         93.4640   -12.1910     9.4940 nc         1 JWR      -0.397300
     26 O26         91.4220    -9.6550    13.4700 o          1 JWR      -0.528100
     27 H30         96.1810    -9.3560    12.7300 ha         1 JWR       0.133000
     28 H32         92.2480   -10.7560    11.5440 ha         1 JWR       0.179000
     29 H33         96.5460   -13.5980     7.1630 ha         1 JWR       0.131000
     30 H34         96.2860   -15.1130     5.2290 ha         1 JWR       0.114500
     31 H35         94.0270   -15.9130     4.5480 ha         1 JWR       0.112000
     32 H36         92.0160   -15.1820     5.8240 ha         1 JWR       0.114500
     33 H37         92.2440   -13.6700     7.7610 ha         1 JWR       0.131000
     34 H27         93.7190    -5.0360    16.0180 h4         1 JWR       0.037100
     35 H28         93.9450    -6.7420    14.2510 ha         1 JWR       0.140000
     36 H29         94.3600    -8.6510    13.8600 hn         1 JWR       0.328500
     37 H31         97.2620   -10.6840    10.8330 h4         1 JWR       0.164000
@<TRIPOS>BOND
     1     1     2 1   
     2     1     3 2   
     3     1    20 1   
     4     2    21 2   
     5     2    27 1   
     6     3    22 1   
     7     3    28 1   
     8     4     5 1   
     9     4    24 2   
    10     4    25 1   
    11     5     6 ar  
    12     5    10 ar  
    13     6     7 ar  
    14     6    29 1   
    15     7     8 ar  
    16     7    30 1   
    17     8     9 ar  
    18     8    31 1   
    19     9    10 ar  
    20     9    32 1   
    21    10    33 1   
    22    11    12 1   
    23    11    20 1   
    24    11    26 2   
    25    12    13 ar  
    26    12    17 ar  
    27    13    14 ar  
    28    13    19 1   
    29    14    15 ar  
    30    14    18 1   
    31    15    16 ar  
    32    16    17 ar  
    33    16    34 1   
    34    17    35 1   
    35    20    36 1   
    36    21    23 1   
    37    21    37 1   
    38    22    23 1   
    39    22    25 2   
    40    23    24 1   
@<TRIPOS>SUBSTRUCTURE
     1 JWR         1 TEMP              0 ****  ****    0 ROOT
