@<TRIPOS>MOLECULE
JWS
   28    29     1     0     0
SMALL
bcc


@<TRIPOS>ATOM
      1 N1          -3.5070     0.6150    -0.0320 nb         1 JWS      -0.892000
      2 C2          -3.0680    -0.6380    -0.0610 ca         1 JWS       0.981900
      3 N3          -3.9640    -1.6220    -0.0940 nv         1 JWS      -0.957500
      4 N4          -1.7690    -0.9850    -0.0620 nb         1 JWS      -0.881000
      5 C5          -0.8990     0.0230    -0.0320 cp         1 JWS       0.838500
      6 C6           0.5310    -0.3280    -0.0350 cp         1 JWS      -0.245500
      7 C7           0.9650    -1.6700    -0.0690 ca         1 JWS       0.183100
      8 O8           0.1310    -2.7160    -0.0990 oh         1 JWS      -0.523100
      9 C9           2.3350    -1.9260    -0.0730 ca         1 JWS      -0.169000
     10 C10          3.2630    -0.9000    -0.0430 ca         1 JWS      -0.140000
     11 C11          2.8390     0.4290    -0.0090 ca         1 JWS       0.070100
     12 O12          3.6670     1.4990     0.0220 os         1 JWS      -0.319900
     13 C13          1.4800     0.6950    -0.0050 ca         1 JWS      -0.070000
     14 N14         -1.2320     1.3000    -0.0010 nb         1 JWS      -0.881000
     15 C15         -2.5520     1.5440    -0.0020 ca         1 JWS       0.981900
     16 N16         -2.9320     2.8210     0.0320 nv         1 JWS      -0.957500
     17 C17          5.0590     1.2660    -0.0030 c3         1 JWS       0.127700
     18 HN3         -4.9470    -1.4150    -0.0830 hn         1 JWS       0.453800
     19 HN3A        -3.6730    -2.5840    -0.1020 hn         1 JWS       0.453800
     20 HO8         -0.7920    -2.3530    -0.0920 ho         1 JWS       0.481000
     21 H9           2.6750    -2.9530    -0.1010 ha         1 JWS       0.146000
     22 H10          4.3140    -1.1570    -0.0480 ha         1 JWS       0.134000
     23 H13          1.1370     1.7210     0.0210 ha         1 JWS       0.165000
     24 HN16        -3.9070     3.0640     0.0150 hn         1 JWS       0.453800
     25 HN1A        -2.2480     3.5560     0.0390 hn         1 JWS       0.453800
     26 H17          5.3970     0.6960     0.8680 h1         1 JWS       0.037033
     27 H17A         5.3720     0.7390    -0.9090 h1         1 JWS       0.037033
     28 H17B         5.5380     2.2420     0.0150 h1         1 JWS       0.037033
@<TRIPOS>BOND
     1     1     2 ar  
     2     1    15 ar  
     3     2     3 1   
     4     2     4 ar  
     5     3    18 1   
     6     3    19 1   
     7     4     5 ar  
     8     5     6 1   
     9     5    14 ar  
    10     6     7 ar  
    11     6    13 ar  
    12     7     8 1   
    13     7     9 ar  
    14     8    20 1   
    15     9    10 ar  
    16     9    21 1   
    17    10    11 ar  
    18    10    22 1   
    19    11    12 1   
    20    11    13 ar  
    21    12    17 1   
    22    13    23 1   
    23    14    15 ar  
    24    15    16 1   
    25    16    24 1   
    26    16    25 1   
    27    17    26 1   
    28    17    27 1   
    29    17    28 1   
@<TRIPOS>SUBSTRUCTURE
     1 JWS         1 TEMP              0 ****  ****    0 ROOT
