@<TRIPOS>MOLECULE
JWS
   28    29     1     0     0
SMALL
No Charge or Current Charge


@<TRIPOS>ATOM
      1 N1          -3.6000     0.6380     0.0120 nb         1 JWS      -0.366000
      2 C2          -3.1550    -0.6180     0.0340 ca         1 JWS       0.455900
      3 N3          -4.0880    -1.5870     0.0940 nv         1 JWS      -1.067900
      4 N4          -1.8790    -1.0140     0.0050 nb         1 JWS      -0.355000
      5 C5          -0.9620    -0.0210    -0.0540 cp         1 JWS       0.312500
      6 C6           0.5130    -0.3690    -0.0850 cp         1 JWS      -0.245500
      7 C7           1.0140    -1.6960    -0.2530 ca         1 JWS       0.183100
      8 O8           0.1840    -2.7620    -0.4080 oh         1 JWS      -0.562100
      9 C9           2.3940    -1.9540    -0.2770 ca         1 JWS      -0.151000
     10 C10          3.3250    -0.9150    -0.1340 ca         1 JWS      -0.122000
     11 C11          2.8680     0.4060     0.0340 ca         1 JWS       0.070100
     12 O12          3.7290     1.4760     0.1810 os         1 JWS      -0.343100
     13 C13          1.4870     0.6650     0.0560 ca         1 JWS      -0.052000
     14 N14         -1.3060     1.2850    -0.0800 nb         1 JWS      -0.355000
     15 C15         -2.6180     1.5380    -0.0440 ca         1 JWS       0.455900
     16 N16         -2.9850     2.8320    -0.0720 nv         1 JWS      -1.067900
     17 C17          5.1600     1.3190     0.1720 c3         1 JWS       0.150900
     18 HN3         -5.0330    -1.3100     0.3490 hn         1 JWS       0.509000
     19 HN3A        -3.7990    -2.5150     0.3880 hn         1 JWS       0.509000
     20 HO8         -0.7340    -2.4130    -0.3280 ho         1 JWS       0.520000
     21 H9           2.7460    -2.9740    -0.4090 ha         1 JWS       0.128000
     22 H10          4.3840    -1.1530    -0.1570 ha         1 JWS       0.116000
     23 H13          1.1780     1.6990     0.1920 ha         1 JWS       0.147000
     24 HN16        -3.9530     3.0410    -0.3010 hn         1 JWS       0.509000
     25 HN1A        -2.2940     3.5170    -0.3670 hn         1 JWS       0.509000
     26 H17          5.4850     0.6620     0.9890 h1         1 JWS       0.037033
     27 H17A         5.5000     0.8930    -0.7810 h1         1 JWS       0.037033
     28 H17B         5.6500     2.2920     0.3030 h1         1 JWS       0.037033
@<TRIPOS>BOND
     1     1     2 ar  
     2     1    15 ar  
     3     2     3 1   
     4     2     4 ar  
     5     3    18 1   
     6     3    19 1   
     7     4     5 ar  
     8     5     6 1   
     9     5    14 ar  
    10     6     7 ar  
    11     6    13 ar  
    12     7     8 1   
    13     7     9 ar  
    14     8    20 1   
    15     9    10 ar  
    16     9    21 1   
    17    10    11 ar  
    18    10    22 1   
    19    11    12 1   
    20    11    13 ar  
    21    12    17 1   
    22    13    23 1   
    23    14    15 ar  
    24    15    16 1   
    25    16    24 1   
    26    16    25 1   
    27    17    26 1   
    28    17    27 1   
    29    17    28 1   
@<TRIPOS>SUBSTRUCTURE
     1 JWS         1 TEMP              0 ****  ****    0 ROOT
