@<TRIPOS>MOLECULE
JWT
   45    47     1     0     0
SMALL
No Charge or Current Charge


@<TRIPOS>ATOM
      1 CAY         -4.3160     0.3130     0.9840 ca         1 JWT      -0.099500
      2 CAZ         -5.5540    -0.3520     0.9770 ca         1 JWT      -0.106000
      3 CBA         -6.1500    -0.7170    -0.2410 ca         1 JWT      -0.099000
      4 CAX         -5.5080    -0.4140    -1.4540 ca         1 JWT      -0.106000
      5 CAW         -4.2690     0.2510    -1.4480 ca         1 JWT      -0.099500
      6 CAV         -3.6630     0.6150    -0.2280 ca         1 JWT      -0.132300
      7 CAU         -2.3140     1.3300    -0.2230 c3         1 JWT       0.132300
      8 NAN         -1.2990     0.6990     0.6720 n          1 JWT      -0.333000
      9 CAO         -0.7000    -0.5180     0.3630 cc         1 JWT       0.417600
     10 NAP         -1.1610    -1.1610    -0.7360 nv         1 JWT      -0.942000
     11 CAM         -0.9270     1.3910     1.8350 c          1 JWT       0.628000
     12 OAL         -1.4190     2.4530     2.1790 o          1 JWT      -0.551000
     13 NAD          0.0340     0.8190     2.5930 ns         1 JWT      -0.465500
     14 CAE          0.7010    -0.3370     2.3790 c          1 JWT       0.605200
     15 OAA          1.5650    -0.7100     3.1570 o          1 JWT      -0.546000
     16 CAF          0.2930    -1.0710     1.1500 cd         1 JWT      -0.271200
     17 NAG          0.9210    -2.3040     0.7740 nh         1 JWT      -0.574300
     18 CAB          0.9270    -3.4420     1.7120 c3         1 JWT       0.190100
     19 SAH          1.9890    -2.4610    -0.5670 sy         1 JWT       1.156600
     20 OAC          3.1650    -3.2100    -0.1060 o          1 JWT      -0.545000
     21 OAQ          1.1780    -2.9200    -1.7010 o          1 JWT      -0.545000
     22 CAI          2.4520    -0.7360    -0.8100 ca         1 JWT      -0.303500
     23 CAJ          3.4010    -0.1450     0.0490 ca         1 JWT       0.020500
     24 CAK          3.7370     1.2100    -0.1080 ca         1 JWT      -0.172500
     25 CAT          3.1270     1.9690    -1.1170 ca         1 JWT       0.230000
     26 CAS          2.1820     1.3860    -1.9730 ca         1 JWT      -0.172500
     27 CAR          1.8410     0.0320    -1.8230 ca         1 JWT       0.020500
     28 FAM          3.4490     3.2730    -1.2620 f          1 JWT      -0.173000
     29 HAW         -3.7850     0.4840    -2.3950 ha         1 JWT       0.118500
     30 HAX         -5.9700    -0.6940    -2.3980 ha         1 JWT       0.119500
     31 HBA         -7.1090    -1.2320    -0.2460 ha         1 JWT       0.119000
     32 HAZ         -6.0520    -0.5830     1.9160 ha         1 JWT       0.119500
     33 HAY         -3.8650     0.5930     1.9340 ha         1 JWT       0.118500
     34 HAU1        -1.9050     1.3540    -1.2420 h1         1 JWT       0.086700
     35 HAU2        -2.4810     2.3790     0.0510 h1         1 JWT       0.086700
     36 HAP1        -2.1420    -1.0470    -0.9590 hn         1 JWT       0.511000
     37 HAP2        -0.7820    -2.0920    -0.8820 hn         1 JWT       0.511000
     38 HAD          0.2950     1.3260     3.4220 hn         1 JWT       0.348500
     39 HAB1         0.8450    -4.3940     1.1710 h1         1 JWT       0.053700
     40 HAB2         1.8540    -3.4510     2.3010 h1         1 JWT       0.053700
     41 HAB3         0.0800    -3.3700     2.4060 h1         1 JWT       0.053700
     42 HAJ          3.8660    -0.7280     0.8440 ha         1 JWT       0.135000
     43 HAR          1.0980    -0.4100    -2.4850 ha         1 JWT       0.135000
     44 HAK          4.4640     1.6720     0.5530 ha         1 JWT       0.134500
     45 HAS          1.7120     1.9840    -2.7490 ha         1 JWT       0.134500
@<TRIPOS>BOND
     1     1     2 ar  
     2     1     6 ar  
     3     1    33 1   
     4     2     3 ar  
     5     2    32 1   
     6     3     4 ar  
     7     3    31 1   
     8     4     5 ar  
     9     4    30 1   
    10     5     6 ar  
    11     5    29 1   
    12     6     7 1   
    13     7     8 1   
    14     7    34 1   
    15     7    35 1   
    16     8     9 1   
    17     8    11 1   
    18     9    10 1   
    19     9    16 2   
    20    10    36 1   
    21    10    37 1   
    22    11    12 2   
    23    11    13 1   
    24    13    14 1   
    25    13    38 1   
    26    14    15 2   
    27    14    16 1   
    28    16    17 1   
    29    17    18 1   
    30    17    19 1   
    31    18    39 1   
    32    18    40 1   
    33    18    41 1   
    34    19    20 2   
    35    19    21 2   
    36    19    22 1   
    37    22    23 ar  
    38    22    27 ar  
    39    23    24 ar  
    40    23    42 1   
    41    24    25 ar  
    42    24    44 1   
    43    25    26 ar  
    44    25    28 1   
    45    26    27 ar  
    46    26    45 1   
    47    27    43 1   
@<TRIPOS>SUBSTRUCTURE
     1 JWT         1 TEMP              0 ****  ****    0 ROOT
