@<TRIPOS>MOLECULE
JWT
   45    47     1     0     0
SMALL
bcc


@<TRIPOS>ATOM
      1 CAY         -4.5650    -0.1530     1.0950 ca         1 JWT      -0.117500
      2 CAZ         -5.6110    -0.9100     1.6030 ca         1 JWT      -0.124000
      3 CBA         -6.5290    -1.5020     0.7440 ca         1 JWT      -0.117000
      4 CAX         -6.3920    -1.3370    -0.6270 ca         1 JWT      -0.124000
      5 CAW         -5.3420    -0.5840    -1.1350 ca         1 JWT      -0.117500
      6 CAV         -4.4230     0.0160    -0.2800 ca         1 JWT      -0.132300
      7 CAU         -3.3190     0.8650    -0.8630 c3         1 JWT       0.132300
      8 NAN         -2.0570     0.7660    -0.1370 n          1 JWT      -0.400000
      9 CAO         -1.2740    -0.3570    -0.2560 cc         1 JWT       0.417600
     10 NAP         -1.7380    -1.3670    -0.9890 nv         1 JWT      -0.831600
     11 CAM         -1.6690     1.8480     0.6430 c          1 JWT       0.837500
     12 OAL         -2.3700     2.8300     0.7770 o          1 JWT      -0.626500
     13 NAD         -0.4580     1.7300     1.2460 ns         1 JWT      -0.599500
     14 CAE          0.4250     0.6550     1.1760 c          1 JWT       0.747700
     15 OAA          1.4650     0.6850     1.8130 o          1 JWT      -0.621500
     16 CAF         -0.0270    -0.4110     0.3470 cd         1 JWT      -0.271200
     17 NAG          0.7230    -1.6010     0.2300 nh         1 JWT      -0.574300
     18 CAB          1.0000    -2.3770     1.4390 c3         1 JWT       0.190100
     19 SAH          1.8570    -1.6370    -0.9910 sy         1 JWT       1.298200
     20 OAC          2.3940    -2.9880    -1.0160 o          1 JWT      -0.615800
     21 OAQ          1.2140    -1.0910    -2.1740 o          1 JWT      -0.615800
     22 CAI          3.1550    -0.5340    -0.5270 ca         1 JWT      -0.303500
     23 CAJ          4.1790    -0.9930     0.2920 ca         1 JWT       0.002500
     24 CAK          5.1650    -0.1160     0.7070 ca         1 JWT      -0.190500
     25 CAT          5.1010     1.2000     0.2860 ca         1 JWT       0.194900
     26 CAS          4.0960     1.6690    -0.5400 ca         1 JWT      -0.190500
     27 CAR          3.1110     0.7880    -0.9500 ca         1 JWT       0.002500
     28 FAM          6.0500     2.0510     0.6880 f          1 JWT      -0.137900
     29 HAW         -5.2360    -0.4640    -2.2070 ha         1 JWT       0.136500
     30 HAX         -7.0990    -1.8000    -1.3040 ha         1 JWT       0.137500
     31 HBA         -7.3440    -2.0910     1.1440 ha         1 JWT       0.137000
     32 HAZ         -5.7110    -1.0360     2.6730 ha         1 JWT       0.137500
     33 HAY         -3.8600     0.3000     1.7810 ha         1 JWT       0.136500
     34 HAU1        -3.1440     0.6060    -1.9080 h1         1 JWT       0.086700
     35 HAU2        -3.6120     1.9110    -0.8540 h1         1 JWT       0.086700
     36 HAP1        -2.7100    -1.4650    -1.2260 hn         1 JWT       0.455800
     37 HAP2        -1.1900    -2.2110    -1.0180 hn         1 JWT       0.455800
     38 HAD         -0.1830     2.5080     1.8320 hn         1 JWT       0.348500
     39 HAB1         1.1830    -3.4180     1.1900 h1         1 JWT       0.053700
     40 HAB2         1.8420    -1.9860     2.0110 h1         1 JWT       0.053700
     41 HAB3         0.1100    -2.3290     2.0620 h1         1 JWT       0.053700
     42 HAJ          4.2230    -2.0270     0.6060 ha         1 JWT       0.153000
     43 HAR          2.3180     1.1410    -1.5950 ha         1 JWT       0.153000
     44 HAK          5.9750    -0.4520     1.3410 ha         1 JWT       0.152500
     45 HAS          4.0820     2.7020    -0.8590 ha         1 JWT       0.152500
@<TRIPOS>BOND
     1     1     2 ar  
     2     1     6 ar  
     3     1    33 1   
     4     2     3 ar  
     5     2    32 1   
     6     3     4 ar  
     7     3    31 1   
     8     4     5 ar  
     9     4    30 1   
    10     5     6 ar  
    11     5    29 1   
    12     6     7 1   
    13     7     8 1   
    14     7    34 1   
    15     7    35 1   
    16     8     9 1   
    17     8    11 1   
    18     9    10 1   
    19     9    16 2   
    20    10    36 1   
    21    10    37 1   
    22    11    12 2   
    23    11    13 1   
    24    13    14 1   
    25    13    38 1   
    26    14    15 2   
    27    14    16 1   
    28    16    17 1   
    29    17    18 1   
    30    17    19 1   
    31    18    39 1   
    32    18    40 1   
    33    18    41 1   
    34    19    20 2   
    35    19    21 2   
    36    19    22 1   
    37    22    23 ar  
    38    22    27 ar  
    39    23    24 ar  
    40    23    42 1   
    41    24    25 ar  
    42    24    44 1   
    43    25    26 ar  
    44    25    28 1   
    45    26    27 ar  
    46    26    45 1   
    47    27    43 1   
@<TRIPOS>SUBSTRUCTURE
     1 JWT         1 TEMP              0 ****  ****    0 ROOT
