@<TRIPOS>MOLECULE
JWX
   46    49     1     0     0
SMALL
bcc


@<TRIPOS>ATOM
      1 C23        -21.9420    74.1680    72.4490 c3         1 JWX       0.151100
      2 N1         -21.4390    72.9040    72.9450 n3         1 JWX      -0.718600
      3 C20        -21.4170    72.8140    74.4030 c3         1 JWX       0.225800
      4 C5         -20.5670    71.6350    74.8470 ca         1 JWX      -0.073300
      5 C6         -20.8600    70.9130    76.0430 ca         1 JWX      -0.026000
      6 C11        -21.9750    71.2040    76.8700 ca         1 JWX      -0.123000
      7 C12        -22.2230    70.4850    78.0080 ca         1 JWX      -0.126000
      8 C13        -21.3700    69.4320    78.3910 ca         1 JWX      -0.129000
      9 C14        -20.2830    69.1250    77.6210 ca         1 JWX      -0.115000
     10 C1         -19.9980    69.8520    76.4400 ca         1 JWX      -0.040000
     11 C2         -18.8660    69.5370    75.6550 ca         1 JWX      -0.119000
     12 C3         -18.5980    70.2490    74.5210 ca         1 JWX      -0.130000
     13 C4         -19.4510    71.2960    74.1230 ca         1 JWX      -0.109000
     14 C21        -20.8600    74.0740    75.0680 c3         1 JWX      -0.091100
     15 C22        -22.2160    71.7960    72.3920 c3         1 JWX       0.234000
     16 C24        -22.0370    71.6120    70.9200 cc         1 JWX      -0.144400
     17 C25        -20.9640    71.0360    70.2980 cd         1 JWX      -0.087100
     18 N2         -21.1510    71.0290    68.9460 na         1 JWX      -0.174400
     19 C26        -22.3550    71.5990    68.6520 ca         1 JWX      -0.051200
     20 C27        -22.9460    71.9840    69.8770 ca         1 JWX      -0.093800
     21 C34        -22.9810    71.8120    67.4250 ca         1 JWX      -0.145000
     22 C33        -24.2200    72.4240    67.4390 ca         1 JWX      -0.112000
     23 C32        -24.8240    72.8190    68.6450 ca         1 JWX      -0.159000
     24 C31        -24.2010    72.6050    69.8580 ca         1 JWX      -0.083000
     25 H1         -21.2950    74.9930    72.7410 h1         1 JWX       0.033367
     26 H2         -21.9560    74.1470    71.3590 h1         1 JWX       0.033367
     27 H3         -22.9640    74.3950    72.7900 h1         1 JWX       0.033367
     28 H5         -22.4470    72.6790    74.7700 h1         1 JWX       0.026700
     29 H6         -22.6500    72.0070    76.6110 ha         1 JWX       0.130000
     30 H7         -23.0820    70.7300    78.6200 ha         1 JWX       0.129000
     31 H8         -21.5780    68.8700    79.2930 ha         1 JWX       0.130000
     32 H9         -19.6190    68.3180    77.9070 ha         1 JWX       0.129000
     33 H10        -18.2170    68.7280    75.9690 ha         1 JWX       0.130000
     34 H11        -17.7310    70.0120    73.9190 ha         1 JWX       0.129000
     35 H12        -19.2310    71.8390    73.2130 ha         1 JWX       0.150000
     36 H13        -20.7380    73.9030    76.1370 hc         1 JWX       0.042033
     37 H14        -19.8820    74.3280    74.6560 hc         1 JWX       0.042033
     38 H15        -21.5220    74.9320    74.9520 hc         1 JWX       0.042033
     39 H16        -23.2880    71.9230    72.6170 h1         1 JWX       0.039700
     40 H17        -21.9100    70.8810    72.9020 h1         1 JWX       0.039700
     41 H18        -20.0670    70.6200    70.7300 h4         1 JWX       0.165000
     42 H19        -20.5010    70.6550    68.2740 hn         1 JWX       0.298700
     43 H20        -22.5150    71.5090    66.4960 ha         1 JWX       0.130000
     44 H21        -24.7340    72.6040    66.5040 ha         1 JWX       0.127000
     45 H22        -25.7940    73.2990    68.6180 ha         1 JWX       0.127000
     46 H23        -24.6760    72.9130    70.7820 ha         1 JWX       0.130000
@<TRIPOS>BOND
     1     1     2 1   
     2     1    25 1   
     3     1    26 1   
     4     1    27 1   
     5     2     3 1   
     6     2    15 1   
     7     3     4 1   
     8     3    14 1   
     9     3    28 1   
    10     4     5 ar  
    11     4    13 ar  
    12     5     6 ar  
    13     5    10 ar  
    14     6     7 ar  
    15     6    29 1   
    16     7     8 ar  
    17     7    30 1   
    18     8     9 ar  
    19     8    31 1   
    20     9    10 ar  
    21     9    32 1   
    22    10    11 ar  
    23    11    12 ar  
    24    11    33 1   
    25    12    13 ar  
    26    12    34 1   
    27    13    35 1   
    28    14    36 1   
    29    14    37 1   
    30    14    38 1   
    31    15    16 1   
    32    15    39 1   
    33    15    40 1   
    34    16    17 2   
    35    16    20 1   
    36    17    18 1   
    37    17    41 1   
    38    18    19 1   
    39    18    42 1   
    40    19    20 ar  
    41    19    21 ar  
    42    20    24 ar  
    43    21    22 ar  
    44    21    43 1   
    45    22    23 ar  
    46    22    44 1   
    47    23    24 ar  
    48    23    45 1   
    49    24    46 1   
@<TRIPOS>SUBSTRUCTURE
     1 JWX         1 TEMP              0 ****  ****    0 ROOT
