@<TRIPOS>MOLECULE
JWX
   46    49     1     0     0
SMALL
No Charge or Current Charge


@<TRIPOS>ATOM
      1 C23        -21.9000    74.2670    72.3890 c3         1 JWX       0.151100
      2 N1         -21.3060    73.0100    72.9170 n3         1 JWX      -0.718600
      3 C20        -21.2110    72.9640    74.4110 c3         1 JWX       0.225800
      4 C5         -20.4750    71.7050    74.9230 ca         1 JWX      -0.073300
      5 C6         -20.9190    70.9350    76.0410 ca         1 JWX      -0.026000
      6 C11        -22.0660    71.2800    76.8000 ca         1 JWX      -0.105000
      7 C12        -22.4740    70.4910    77.8890 ca         1 JWX      -0.108000
      8 C13        -21.7470    69.3480    78.2450 ca         1 JWX      -0.111000
      9 C14        -20.6020    68.9960    77.5160 ca         1 JWX      -0.097000
     10 C1         -20.1840    69.7820    76.4250 ca         1 JWX      -0.040000
     11 C2         -19.0220    69.4090    75.7270 ca         1 JWX      -0.101000
     12 C3         -18.5720    70.1810    74.6500 ca         1 JWX      -0.112000
     13 C4         -19.2890    71.3190    74.2580 ca         1 JWX      -0.091000
     14 C21        -20.5280    74.2020    75.0410 c3         1 JWX      -0.091100
     15 C22        -21.9880    71.8100    72.3560 c3         1 JWX       0.234000
     16 C24        -21.8670    71.6970    70.8550 cc         1 JWX      -0.144400
     17 C25        -20.7240    71.3810    70.1260 cd         1 JWX      -0.137100
     18 N2         -21.0280    71.3710    68.7420 na         1 JWX      -0.224700
     19 C26        -22.3700    71.6890    68.6460 ca         1 JWX      -0.051200
     20 C27        -22.9100    71.8920    69.8860 ca         1 JWX      -0.093800
     21 C34        -23.1420    71.8110    67.4820 ca         1 JWX      -0.127000
     22 C33        -24.5040    72.1540    67.6200 ca         1 JWX      -0.094000
     23 C32        -25.0610    72.3660    68.9030 ca         1 JWX      -0.141000
     24 C31        -24.2590    72.2360    70.0570 ca         1 JWX      -0.065000
     25 H1         -21.2980    75.1410    72.6670 h1         1 JWX       0.033367
     26 H2         -21.9480    74.2560    71.2930 h1         1 JWX       0.033367
     27 H3         -22.9190    74.4100    72.7730 h1         1 JWX       0.033367
     28 H5         -22.2420    72.9540    74.7770 h1         1 JWX       0.026700
     29 H6         -22.6570    72.1620    76.5790 ha         1 JWX       0.112000
     30 H7         -23.3570    70.7710    78.4590 ha         1 JWX       0.111000
     31 H8         -22.0650    68.7390    79.0890 ha         1 JWX       0.112000
     32 H9         -20.0370    68.1120    77.8040 ha         1 JWX       0.111000
     33 H10        -18.4600    68.5270    76.0250 ha         1 JWX       0.112000
     34 H11        -17.6670    69.8970    74.1180 ha         1 JWX       0.111000
     35 H12        -18.9250    71.9060    73.4170 ha         1 JWX       0.132000
     36 H13        -20.4050    74.0600    76.1210 hc         1 JWX       0.042033
     37 H14        -19.5360    74.3660    74.6030 hc         1 JWX       0.042033
     38 H15        -21.1290    75.1080    74.9000 hc         1 JWX       0.042033
     39 H16        -23.0500    71.8180    72.6340 h1         1 JWX       0.039700
     40 H17        -21.5650    70.8880    72.7770 h1         1 JWX       0.039700
     41 H18        -19.7240    71.1670    70.4940 h4         1 JWX       0.215000
     42 H19        -20.3900    71.1750    67.9770 hn         1 JWX       0.349000
     43 H20        -22.7050    71.6490    66.5000 ha         1 JWX       0.112000
     44 H21        -25.1280    72.2560    66.7340 ha         1 JWX       0.109000
     45 H22        -26.1110    72.6310    69.0010 ha         1 JWX       0.109000
     46 H23        -24.6780    72.4010    71.0470 ha         1 JWX       0.112000
@<TRIPOS>BOND
     1     1     2 1   
     2     1    25 1   
     3     1    26 1   
     4     1    27 1   
     5     2     3 1   
     6     2    15 1   
     7     3     4 1   
     8     3    14 1   
     9     3    28 1   
    10     4     5 ar  
    11     4    13 ar  
    12     5     6 ar  
    13     5    10 ar  
    14     6     7 ar  
    15     6    29 1   
    16     7     8 ar  
    17     7    30 1   
    18     8     9 ar  
    19     8    31 1   
    20     9    10 ar  
    21     9    32 1   
    22    10    11 ar  
    23    11    12 ar  
    24    11    33 1   
    25    12    13 ar  
    26    12    34 1   
    27    13    35 1   
    28    14    36 1   
    29    14    37 1   
    30    14    38 1   
    31    15    16 1   
    32    15    39 1   
    33    15    40 1   
    34    16    17 2   
    35    16    20 1   
    36    17    18 1   
    37    17    41 1   
    38    18    19 1   
    39    18    42 1   
    40    19    20 ar  
    41    19    21 ar  
    42    20    24 ar  
    43    21    22 ar  
    44    21    43 1   
    45    22    23 ar  
    46    22    44 1   
    47    23    24 ar  
    48    23    45 1   
    49    24    46 1   
@<TRIPOS>SUBSTRUCTURE
     1 JWX         1 TEMP              0 ****  ****    0 ROOT
