@<TRIPOS>MOLECULE
JWY
   54    57     1     0     0
SMALL
No Charge or Current Charge


@<TRIPOS>ATOM
      1 C1          -0.9890    -0.7290     0.1670 ca         1 JWY      -0.077000
      2 C2           0.2360    -1.4230     0.2330 ca         1 JWY      -0.009800
      3 C3           0.2400    -2.8020     0.5320 ca         1 JWY       0.150000
      4 C4          -0.9680    -3.4760     0.7580 ca         1 JWY      -0.128000
      5 C5          -2.2130    -1.4000     0.3950 ca         1 JWY      -0.051000
      6 C6          -2.1820    -2.7790     0.6880 ca         1 JWY       0.133000
      7 C8           1.4830    -0.7030    -0.0130 cc         1 JWY      -0.170400
      8 C11          1.8860     0.1430     0.9940 cd         1 JWY      -0.030200
      9 C12          3.1280     0.8970     0.8660 ca         1 JWY      -0.265800
     10 C13          3.9000     0.7710    -0.2960 ca         1 JWY       0.189600
     11 C15          2.2700    -0.8750    -1.2600 c          1 JWY       0.578200
     12 C16          5.1190     1.4690    -0.3270 ca         1 JWY      -0.317000
     13 C17          5.4610     2.2710     0.7600 ca         1 JWY       0.661900
     14 C19          3.5690     1.7390     1.9020 ca         1 JWY       0.453900
     15 O20          1.9000    -1.6240    -2.1570 o          1 JWY      -0.532000
     16 N14          3.4650    -0.1130    -1.3520 n          1 JWY      -0.282000
     17 C22          5.4050    -1.1850    -2.5610 c3         1 JWY      -0.111100
     18 N18          4.7260     2.4270     1.8490 nb         1 JWY      -0.769000
     19 N32          6.6040     3.0040     0.8350 nu         1 JWY      -0.932100
     20 C33          7.7890     2.9110    -0.0300 c3         1 JWY       0.220100
     21 Cl9          1.7540    -3.7010     0.6510 cl         1 JWY      -0.181000
     22 F10         -3.3360    -3.4490     0.9090 f          1 JWY      -0.181000
     23 N7          -3.4850    -0.7550     0.3400 ns         1 JWY      -0.168000
     24 C23         -3.8590     0.5660     0.1340 c          1 JWY       0.666100
     25 O31         -3.0700     1.4860    -0.0420 o          1 JWY      -0.595100
     26 N24         -5.2400     0.7100     0.1570 ns         1 JWY      -0.164000
     27 C25         -6.0910     1.8400    -0.0020 ca         1 JWY      -0.013000
     28 C26         -5.6190     3.1480    -0.2520 ca         1 JWY      -0.142000
     29 C27         -6.5240     4.2150    -0.3990 ca         1 JWY      -0.086000
     30 C28         -7.9050     3.9870    -0.2970 ca         1 JWY      -0.132000
     31 C29         -8.3840     2.6920    -0.0490 ca         1 JWY      -0.086000
     32 C30         -7.4790     1.6250     0.0970 ca         1 JWY      -0.142000
     33 H1          -0.9620     0.3290    -0.0710 ha         1 JWY       0.145000
     34 H2          -0.9640    -4.5370     0.9900 ha         1 JWY       0.148000
     35 H3           1.2810     0.2360     1.8950 ha         1 JWY       0.188000
     36 H4           5.7960     1.4060    -1.1680 ha         1 JWY       0.130000
     37 H5           2.9800     1.8590     2.8100 h4         1 JWY       0.019100
     38 H6           3.5760    -0.4600    -3.4520 h1         1 JWY       0.066200
     39 H7           4.6190     0.8160    -2.8730 h1         1 JWY       0.066200
     40 H8           6.1080    -0.9250    -1.7620 hc         1 JWY       0.045700
     41 H9           5.0300    -2.1980    -2.3740 hc         1 JWY       0.045700
     42 H10          5.9510    -1.1910    -3.5120 hc         1 JWY       0.045700
     43 H11          6.6930     3.4750     1.7320 hn         1 JWY       0.509000
     44 H12          7.5270     3.1450    -1.0710 h1         1 JWY       0.040367
     45 H13          8.5610     3.6200     0.2990 h1         1 JWY       0.040367
     46 H14          8.2120     1.8980     0.0050 h1         1 JWY       0.040367
     47 H15         -4.2620    -1.3870     0.4790 hn         1 JWY       0.158000
     48 H16         -5.7420    -0.1530     0.3180 hn         1 JWY       0.148000
     49 H17         -4.5590     3.3630    -0.3380 ha         1 JWY       0.125000
     50 H18         -6.1520     5.2190    -0.5920 ha         1 JWY       0.114000
     51 H19         -8.6040     4.8140    -0.4110 ha         1 JWY       0.115000
     52 H20         -9.4540     2.5120     0.0300 ha         1 JWY       0.114000
     53 H21         -7.8640     0.6260     0.2890 ha         1 JWY       0.125000
     54 C21          4.2370    -0.1810    -2.6220 c3         1 JWY       0.087000
@<TRIPOS>BOND
     1     1     2 ar  
     2     1     5 ar  
     3     1    33 1   
     4     2     3 ar  
     5     2     7 1   
     6     3     4 ar  
     7     3    21 1   
     8     4     6 ar  
     9     4    34 1   
    10     5     6 ar  
    11     5    23 1   
    12     6    22 1   
    13     7     8 2   
    14     7    11 1   
    15     8     9 1   
    16     8    35 1   
    17     9    10 ar  
    18     9    14 ar  
    19    10    12 ar  
    20    10    16 1   
    21    11    15 2   
    22    11    16 1   
    23    12    13 ar  
    24    12    36 1   
    25    13    18 ar  
    26    13    19 1   
    27    14    18 ar  
    28    14    37 1   
    29    16    54 1   
    30    17    40 1   
    31    17    41 1   
    32    17    42 1   
    33    17    54 1   
    34    19    20 1   
    35    19    43 1   
    36    20    44 1   
    37    20    45 1   
    38    20    46 1   
    39    23    24 1   
    40    23    47 1   
    41    24    25 2   
    42    24    26 1   
    43    26    27 1   
    44    26    48 1   
    45    27    28 ar  
    46    27    32 ar  
    47    28    29 ar  
    48    28    49 1   
    49    29    30 ar  
    50    29    50 1   
    51    30    31 ar  
    52    30    51 1   
    53    31    32 ar  
    54    31    52 1   
    55    32    53 1   
    56    38    54 1   
    57    39    54 1   
@<TRIPOS>SUBSTRUCTURE
     1 JWY         1 TEMP              0 ****  ****    0 ROOT
