@<TRIPOS>MOLECULE
JWY
   54    57     1     0     0
SMALL
bcc


@<TRIPOS>ATOM
      1 C1          -1.0460    -0.7920     0.3470 ca         1 JWY      -0.095000
      2 C2           0.1760    -1.4280     0.1570 ca         1 JWY      -0.009800
      3 C3           0.1910    -2.8180     0.0710 ca         1 JWY       0.058400
      4 C4          -0.9760    -3.5570     0.1580 ca         1 JWY      -0.146000
      5 C5          -2.2410    -1.5010     0.4290 ca         1 JWY       0.041600
      6 C6          -2.1670    -2.8850     0.3220 ca         1 JWY       0.097900
      7 C8           1.4170    -0.6330     0.1050 cc         1 JWY      -0.170400
      8 C11          1.8670     0.0650     1.1700 cd         1 JWY       0.019800
      9 C12          3.0720     0.8070     1.0970 ca         1 JWY      -0.331100
     10 C13          3.8090     0.8210    -0.1060 ca         1 JWY       0.189600
     11 C15          2.1380    -0.5950    -1.1600 c          1 JWY       0.720700
     12 C16          5.0150     1.5150    -0.1290 ca         1 JWY      -0.400300
     13 C17          5.4350     2.1790     1.0310 ca         1 JWY       0.727200
     14 C19          3.5920     1.5120     2.1850 ca         1 JWY       0.519200
     15 O20          1.7410    -1.1790    -2.1560 o          1 JWY      -0.607500
     16 N14          3.3070     0.1570    -1.1990 n          1 JWY      -0.349000
     17 C22          5.1080    -0.8990    -2.5340 c3         1 JWY      -0.111100
     18 N18          4.7180     2.1800     2.1750 nb         1 JWY      -0.769000
     19 N32          6.5920     2.8610     1.0720 nu         1 JWY      -0.876900
     20 C33          7.5270     2.9460    -0.0160 c3         1 JWY       0.220100
     21 CL9          1.6890    -3.6630    -0.0900 cl         1 JWY      -0.089400
     22 F10         -3.3020    -3.5940     0.4020 f          1 JWY      -0.145900
     23 N7          -3.4800    -0.9040     0.6510 ns         1 JWY      -0.494100
     24 C23         -3.8990     0.2640     0.0630 c          1 JWY       0.800100
     25 O31         -3.2130     0.9060    -0.7090 o          1 JWY      -0.595100
     26 N24         -5.1620     0.6150     0.4480 ns         1 JWY      -0.490100
     27 C25         -5.8770     1.7460     0.0410 ca         1 JWY       0.079600
     28 C26         -5.7170     2.3520    -1.2060 ca         1 JWY      -0.160000
     29 C27         -6.4950     3.4510    -1.5410 ca         1 JWY      -0.104000
     30 C28         -7.4430     3.9560    -0.6620 ca         1 JWY      -0.150000
     31 C29         -7.6110     3.3430     0.5720 ca         1 JWY      -0.104000
     32 C30         -6.8330     2.2520     0.9240 ca         1 JWY      -0.160000
     33 H1          -1.0550     0.2840     0.4360 ha         1 JWY       0.163000
     34 H2          -0.9680    -4.6370     0.0980 ha         1 JWY       0.166000
     35 H3           1.3230     0.0440     2.1080 ha         1 JWY       0.138000
     36 H4           5.6360     1.5430    -1.0100 ha         1 JWY       0.148000
     37 H5           3.0330     1.5140     3.1170 h4         1 JWY       0.019100
     38 H6           3.3190     0.0470    -3.2680 h1         1 JWY       0.066700
     39 H7           4.4660     1.1720    -2.5980 h1         1 JWY       0.066700
     40 H8           5.8330    -0.8040    -1.7260 hc         1 JWY       0.045700
     41 H9           4.6620    -1.8920    -2.4770 hc         1 JWY       0.045700
     42 H10          5.6460    -0.8270    -3.4790 hc         1 JWY       0.045700
     43 H11          6.8270     3.2950     1.9490 hn         1 JWY       0.453800
     44 H12          7.0980     3.4440    -0.8890 h1         1 JWY       0.040367
     45 H13          8.3850     3.5270     0.3100 h1         1 JWY       0.040367
     46 H14          7.8850     1.9620    -0.3290 h1         1 JWY       0.040367
     47 H15         -4.1660    -1.4620     1.1360 hn         1 JWY       0.324500
     48 H16         -5.5730     0.1030     1.2140 hn         1 JWY       0.314500
     49 H17         -5.0050     1.9700    -1.9200 ha         1 JWY       0.143000
     50 H18         -6.3600     3.9100    -2.5130 ha         1 JWY       0.132000
     51 H19         -8.0450     4.8120    -0.9370 ha         1 JWY       0.133000
     52 H20         -8.3460     3.7190     1.2720 ha         1 JWY       0.132000
     53 H21         -6.9650     1.7890     1.8950 ha         1 JWY       0.143000
     54 C21          4.0390     0.1790    -2.4660 c3         1 JWY       0.087000
@<TRIPOS>BOND
     1     1     2 ar  
     2     1     5 ar  
     3     1    33 1   
     4     2     3 ar  
     5     2     7 1   
     6     3     4 ar  
     7     3    21 1   
     8     4     6 ar  
     9     4    34 1   
    10     5     6 ar  
    11     5    23 1   
    12     6    22 1   
    13     7     8 2   
    14     7    11 1   
    15     8     9 1   
    16     8    35 1   
    17     9    10 ar  
    18     9    14 ar  
    19    10    12 ar  
    20    10    16 1   
    21    11    15 2   
    22    11    16 1   
    23    12    13 ar  
    24    12    36 1   
    25    13    18 ar  
    26    13    19 1   
    27    14    18 ar  
    28    14    37 1   
    29    16    54 1   
    30    17    40 1   
    31    17    41 1   
    32    17    42 1   
    33    17    54 1   
    34    19    20 1   
    35    19    43 1   
    36    20    44 1   
    37    20    45 1   
    38    20    46 1   
    39    23    24 1   
    40    23    47 1   
    41    24    25 2   
    42    24    26 1   
    43    26    27 1   
    44    26    48 1   
    45    27    28 ar  
    46    27    32 ar  
    47    28    29 ar  
    48    28    49 1   
    49    29    30 ar  
    50    29    50 1   
    51    30    31 ar  
    52    30    51 1   
    53    31    32 ar  
    54    31    52 1   
    55    32    53 1   
    56    38    54 1   
    57    39    54 1   
@<TRIPOS>SUBSTRUCTURE
     1 JWY         1 TEMP              0 ****  ****    0 ROOT
