@<TRIPOS>MOLECULE
JWZ
  101   106     1     0     0
SMALL
No Charge or Current Charge


@<TRIPOS>ATOM
      1 CBJ         22.8070   -17.2280    28.5390 c6         1 JWZ      -0.092900
      2 CBK         23.9600   -16.2060    28.3690 c6         1 JWZ       0.218300
      3 NBL         23.7370   -15.2800    27.2260 nh         1 JWZ      -0.751600
      4 CBP         24.7940   -14.5650    26.8080 c2         1 JWZ       0.787100
      5 NBR         25.0800   -13.4300    27.2480 n2         1 JWZ      -0.894100
      6 NBQ         25.4050   -15.1430    25.8010 nv         1 JWZ      -1.053200
      7 CBM         22.4110   -14.6050    27.2930 c6         1 JWZ       0.218300
      8 CBN         21.2560   -15.6270    27.4030 c6         1 JWZ      -0.092900
      9 CBH         21.4150   -16.5520    28.6390 c6         1 JWZ       0.187000
     10 OBO         21.3800   -15.7350    29.8230 oh         1 JWZ      -0.660000
     11 CBG         20.2620   -17.6310    28.7990 c3         1 JWZ       0.140800
     12 NBF         20.0530   -18.6680    27.7360 n3         1 JWZ      -0.719600
     13 CBI         19.1870   -18.1920    26.6220 c3         1 JWZ       0.141100
     14 CBE         19.5490   -19.9470    28.3200 c3         1 JWZ       0.178800
     15 CBD         19.4110   -21.1630    27.3620 c3         1 JWZ      -0.089400
     16 CBC         20.7110   -21.9480    27.0800 c3         1 JWZ       0.131000
     17 NAT         21.8050   -21.1350    26.5290 n          1 JWZ      -0.421800
     18 CAS         21.9540   -20.9420    25.1550 c          1 JWZ       0.575000
     19 OBB         21.2610   -21.5030    24.3110 o          1 JWZ      -0.527000
     20 CAU         22.9740   -20.7520    27.2990 c5         1 JWZ       0.396200
     21 NAR         23.9080   -20.2180    26.2930 nh         1 JWZ      -0.831400
     22 CAV         25.3040   -20.3190    26.4310 ca         1 JWZ       0.337000
     23 CBA         26.1180   -19.1870    26.2550 ca         1 JWZ      -0.190500
     24 CAZ         27.5130   -19.2810    26.3930 ca         1 JWZ      -0.075500
     25 CAY         28.1020   -20.5160    26.7100 ca         1 JWZ      -0.169000
     26 CAX         27.2970   -21.6530    26.8880 ca         1 JWZ      -0.075500
     27 CAW         25.9020   -21.5520    26.7490 ca         1 JWZ      -0.190500
     28 CAL         23.1970   -19.9770    24.9880 c5         1 JWZ       0.177200
     29 CAM         22.7490   -18.4830    24.8810 c6         1 JWZ      -0.081400
     30 CAN         22.4500   -17.9830    23.4450 c6         1 JWZ       0.191800
     31 CAK         24.0420   -20.2980    23.7200 c6         1 JWZ      -0.081400
     32 CAJ         23.2850   -20.0340    22.3890 c6         1 JWZ       0.191800
     33 NAI         22.1270   -19.1060    22.5330 n3         1 JWZ      -0.750600
     34 CAH         21.5690   -18.7030    21.2200 c3         1 JWZ       0.192800
     35 CAG         20.1860   -18.0080    21.2920 c3         1 JWZ      -0.079400
     36 CAA         19.5060   -17.7720    19.9080 c6         1 JWZ      -0.046700
     37 CAB         20.3570   -16.8510    18.9690 c6         1 JWZ      -0.068400
     38 CAC         19.5120   -15.8380    18.1370 c6         1 JWZ      -0.063400
     39 CAD         18.0100   -15.7720    18.5590 cy         1 JWZ      -0.067700
     40 CAQ         17.3870   -17.2110    18.5670 cy         1 JWZ      -0.094400
     41 CAF         18.0100   -17.3140    20.0060 cy         1 JWZ      -0.061700
     42 CAE         17.7500   -15.7490    20.1250 cy         1 JWZ      -0.058000
     43 CAP         18.6800   -14.8790    21.0140 c3         1 JWZ      -0.075100
     44 CAO         16.3160   -15.3410    20.5730 c3         1 JWZ      -0.075100
     45 H1          22.9970   -17.8570    29.4180 hc         1 JWZ       0.056450
     46 H2          22.8170   -17.8980    27.6740 hc         1 JWZ       0.056450
     47 H3          24.8930   -16.7690    28.2140 h1         1 JWZ       0.051200
     48 H4          24.0870   -15.6310    29.2980 h1         1 JWZ       0.051200
     49 H5          25.9140   -13.1180    26.7410 hn         1 JWZ       0.374400
     50 H6          24.8610   -15.9470    25.5290 hn         1 JWZ       0.450000
     51 H7          25.6020   -14.5080    25.0420 hn         1 JWZ       0.450000
     52 H8          22.2530   -14.0090    26.3810 h1         1 JWZ       0.051200
     53 H9          22.3790   -13.9060    28.1420 h1         1 JWZ       0.051200
     54 H10         20.2930   -15.1020    27.4380 hc         1 JWZ       0.056450
     55 H11         21.2670   -16.2230    26.4840 hc         1 JWZ       0.056450
     56 H12         21.5200   -16.3340    30.5870 ho         1 JWZ       0.436000
     57 H13         19.3180   -17.0930    28.9650 h1         1 JWZ       0.036700
     58 H14         20.4800   -18.1440    29.7460 h1         1 JWZ       0.036700
     59 H16         19.4210   -17.1700    26.3110 h1         1 JWZ       0.039033
     60 H17         19.3020   -18.8290    25.7360 h1         1 JWZ       0.039033
     61 H18         18.1300   -18.2030    26.9200 h1         1 JWZ       0.039033
     62 H19         18.5570   -19.7600    28.7540 h1         1 JWZ       0.023700
     63 H20         20.1960   -20.2550    29.1510 h1         1 JWZ       0.023700
     64 H21         18.9500   -20.8690    26.4140 hc         1 JWZ       0.059200
     65 H22         18.7070   -21.8650    27.8230 hc         1 JWZ       0.059200
     66 H23         20.4900   -22.7770    26.3950 h1         1 JWZ       0.039200
     67 H24         21.0560   -22.3950    28.0210 h1         1 JWZ       0.039200
     68 H25         23.3520   -21.6600    27.7860 h2         1 JWZ       0.040200
     69 H26         22.6510   -19.9980    28.0250 h2         1 JWZ       0.040200
     70 H27         25.6670   -18.2300    26.0180 ha         1 JWZ       0.117000
     71 H28         28.1350   -18.3980    26.2570 ha         1 JWZ       0.112000
     72 H29         29.1820   -20.5920    26.8170 ha         1 JWZ       0.117000
     73 H30         27.7520   -22.6110    27.1310 ha         1 JWZ       0.112000
     74 H31         25.2850   -22.4360    26.8780 ha         1 JWZ       0.117000
     75 H32         23.5080   -17.8250    25.3180 hc         1 JWZ       0.061700
     76 H33         21.8520   -18.3460    25.4960 hc         1 JWZ       0.061700
     77 H34         23.3280   -17.4400    23.0650 h1         1 JWZ       0.032950
     78 H35         21.6290   -17.2560    23.5060 h1         1 JWZ       0.032950
     79 H36         24.3860   -21.3400    23.7480 hc         1 JWZ       0.061700
     80 H37         24.9480   -19.6780    23.7260 hc         1 JWZ       0.061700
     81 H38         22.9270   -20.9950    21.9930 h1         1 JWZ       0.032950
     82 H39         24.0050   -19.6420    21.6550 h1         1 JWZ       0.032950
     83 H41         21.4520   -19.5980    20.5940 h1         1 JWZ       0.027700
     84 H42         22.2770   -18.0420    20.7030 h1         1 JWZ       0.027700
     85 H43         20.2860   -17.0550    21.8200 hc         1 JWZ       0.049200
     86 H44         19.5310   -18.6330    21.9110 hc         1 JWZ       0.049200
     87 H45         19.4830   -18.7670    19.4420 hc         1 JWZ       0.042700
     88 H46         20.9580   -17.4730    18.2910 hc         1 JWZ       0.034200
     89 H47         21.0940   -16.2880    19.5580 hc         1 JWZ       0.034200
     90 H48         19.5710   -16.1090    17.0740 hc         1 JWZ       0.037700
     91 H49         19.9610   -14.8380    18.2120 hc         1 JWZ       0.037700
     92 H50         17.4730   -15.0210    17.9700 hc         1 JWZ       0.061700
     93 H51         16.2940   -17.2540    18.5190 hc         1 JWZ       0.049700
     94 H52         17.7750   -17.9100    17.8180 hc         1 JWZ       0.049700
     95 H53         17.4560   -17.9450    20.7100 hc         1 JWZ       0.061700
     96 H54         18.5580   -15.1310    22.0740 hc         1 JWZ       0.032867
     97 H55         19.7410   -14.9880    20.7810 hc         1 JWZ       0.032867
     98 H56         18.4510   -13.8130    20.8980 hc         1 JWZ       0.032867
     99 H57         16.1680   -15.5330    21.6430 hc         1 JWZ       0.032867
    100 H58         16.1350   -14.2740    20.3990 hc         1 JWZ       0.032867
    101 H59         15.5250   -15.8850    20.0450 hc         1 JWZ       0.032867
@<TRIPOS>BOND
     1     1     2 1   
     2     1     9 1   
     3     1    45 1   
     4     1    46 1   
     5     2     3 1   
     6     2    47 1   
     7     2    48 1   
     8     3     4 1   
     9     3     7 1   
    10     4     5 2   
    11     4     6 1   
    12     5    49 1   
    13     6    50 1   
    14     6    51 1   
    15     7     8 1   
    16     7    52 1   
    17     7    53 1   
    18     8     9 1   
    19     8    54 1   
    20     8    55 1   
    21     9    10 1   
    22     9    11 1   
    23    10    56 1   
    24    11    12 1   
    25    11    57 1   
    26    11    58 1   
    27    12    13 1   
    28    12    14 1   
    29    13    59 1   
    30    13    60 1   
    31    13    61 1   
    32    14    15 1   
    33    14    62 1   
    34    14    63 1   
    35    15    16 1   
    36    15    64 1   
    37    15    65 1   
    38    16    17 1   
    39    16    66 1   
    40    16    67 1   
    41    17    18 1   
    42    17    20 1   
    43    18    19 2   
    44    18    28 1   
    45    20    21 1   
    46    20    68 1   
    47    20    69 1   
    48    21    22 1   
    49    21    28 1   
    50    22    23 ar  
    51    22    27 ar  
    52    23    24 ar  
    53    23    70 1   
    54    24    25 ar  
    55    24    71 1   
    56    25    26 ar  
    57    25    72 1   
    58    26    27 ar  
    59    26    73 1   
    60    27    74 1   
    61    28    29 1   
    62    28    31 1   
    63    29    30 1   
    64    29    75 1   
    65    29    76 1   
    66    30    33 1   
    67    30    77 1   
    68    30    78 1   
    69    31    32 1   
    70    31    79 1   
    71    31    80 1   
    72    32    33 1   
    73    32    81 1   
    74    32    82 1   
    75    33    34 1   
    76    34    35 1   
    77    34    83 1   
    78    34    84 1   
    79    35    36 1   
    80    35    85 1   
    81    35    86 1   
    82    36    37 1   
    83    36    41 1   
    84    36    87 1   
    85    37    38 1   
    86    37    88 1   
    87    37    89 1   
    88    38    39 1   
    89    38    90 1   
    90    38    91 1   
    91    39    40 1   
    92    39    42 1   
    93    39    92 1   
    94    40    41 1   
    95    40    93 1   
    96    40    94 1   
    97    41    42 1   
    98    41    95 1   
    99    42    43 1   
   100    42    44 1   
   101    43    96 1   
   102    43    97 1   
   103    43    98 1   
   104    44    99 1   
   105    44   100 1   
   106    44   101 1   
@<TRIPOS>SUBSTRUCTURE
     1 JWZ         1 TEMP              0 ****  ****    0 ROOT
