@<TRIPOS>MOLECULE
JWZ
  101   106     1     0     0
SMALL
abcg2


@<TRIPOS>ATOM
      1 CBJ         21.9580   -17.2000    28.3020 c6         1 JWZ      -0.092900
      2 CBK         23.2510   -16.4180    28.4420 c6         1 JWZ       0.218300
      3 NBL         23.7080   -15.9450    27.1420 nh         1 JWZ      -0.751600
      4 CBP         25.0410   -15.6670    26.9330 c2         1 JWZ       0.787100
      5 NBR         25.3960   -14.6840    26.1900 n2         1 JWZ      -0.894100
      6 NBQ         25.9120   -16.5070    27.6020 nv         1 JWZ      -1.053200
      7 CBM         22.7340   -15.1140    26.4600 c6         1 JWZ       0.218300
      8 CBN         21.4130   -15.8530    26.2940 c6         1 JWZ      -0.092900
      9 CBH         20.8650   -16.3960    27.6070 c6         1 JWZ       0.187000
     10 OBO         20.5120   -15.2540    28.3780 oh         1 JWZ      -0.660000
     11 CBG         19.6030   -17.2510    27.4180 c3         1 JWZ       0.140800
     12 NBF         19.8150   -18.5150    26.7200 n3         1 JWZ      -0.719600
     13 CBI         19.2760   -18.4750    25.3750 c3         1 JWZ       0.141100
     14 CBE         19.2840   -19.6260    27.5010 c3         1 JWZ       0.178800
     15 CBD         19.5180   -21.0370    26.9730 c3         1 JWZ      -0.089400
     16 CBC         20.8970   -21.6530    27.1870 c3         1 JWZ       0.131000
     17 NAT         21.9840   -21.0540    26.4420 n          1 JWZ      -0.421800
     18 CAS         22.0270   -20.9630    25.1050 c          1 JWZ       0.575000
     19 OBB         21.1870   -21.3890    24.3380 o          1 JWZ      -0.527000
     20 CAU         23.2550   -20.7970    27.0550 c5         1 JWZ       0.396200
     21 NAR         24.1130   -20.4790    25.9310 nh         1 JWZ      -0.831400
     22 CAV         25.3690   -19.9740    26.1840 ca         1 JWZ       0.337000
     23 CBA         26.1190   -19.2560    25.2360 ca         1 JWZ      -0.190500
     24 CAZ         27.4070   -18.8300    25.5200 ca         1 JWZ      -0.075500
     25 CAY         27.9970   -19.0790    26.7510 ca         1 JWZ      -0.169000
     26 CAX         27.2530   -19.7510    27.7100 ca         1 JWZ      -0.075500
     27 CAW         25.9640   -20.1870    27.4420 ca         1 JWZ      -0.190500
     28 CAL         23.3140   -20.2250    24.7320 c5         1 JWZ       0.177200
     29 CAM         23.0000   -18.7170    24.5690 c6         1 JWZ      -0.081400
     30 CAN         22.9400   -18.2990    23.1110 c6         1 JWZ       0.191800
     31 CAK         23.8960   -20.8390    23.4530 c6         1 JWZ      -0.081400
     32 CAJ         23.0860   -20.4930    22.1880 c6         1 JWZ       0.191800
     33 NAI         22.2510   -19.3290    22.3760 n3         1 JWZ      -0.750600
     34 CAH         21.5680   -18.8770    21.1850 c3         1 JWZ       0.192800
     35 CAG         20.2430   -18.2100    21.5380 c3         1 JWZ      -0.079400
     36 CAA         19.4980   -17.6230    20.3420 c6         1 JWZ      -0.046700
     37 CAB         20.2650   -16.4570    19.6640 c6         1 JWZ      -0.068400
     38 CAC         19.4080   -15.2190    19.2960 c6         1 JWZ      -0.063400
     39 CAD         17.9800   -15.3020    19.8200 cy         1 JWZ      -0.067700
     40 CAQ         17.3970   -16.6700    19.4220 cy         1 JWZ      -0.094400
     41 CAF         18.0700   -17.2110    20.7000 cy         1 JWZ      -0.061700
     42 CAE         17.9440   -15.7770    21.2960 cy         1 JWZ      -0.058000
     43 CAP         18.9810   -15.2220    22.2620 c3         1 JWZ      -0.075100
     44 CAO         16.5700   -15.5740    21.9340 c3         1 JWZ      -0.075100
     45 H1          21.6180   -17.5140    29.2960 hc         1 JWZ       0.056450
     46 H2          22.1400   -18.1120    27.7310 hc         1 JWZ       0.056450
     47 H3          24.0010   -17.0540    28.9040 h1         1 JWZ       0.051200
     48 H4          23.1060   -15.5700    29.1250 h1         1 JWZ       0.051200
     49 H5          26.3990   -14.6930    26.0450 hn         1 JWZ       0.374400
     50 H6          25.6450   -17.4810    27.6250 hn         1 JWZ       0.450000
     51 H7          26.8720   -16.4170    27.3070 hn         1 JWZ       0.450000
     52 H8          23.1270   -14.8530    25.4800 h1         1 JWZ       0.051200
     53 H9          22.5800   -14.1680    26.9950 h1         1 JWZ       0.051200
     54 H10         20.6830   -15.1790    25.8330 hc         1 JWZ       0.056450
     55 H11         21.5610   -16.6790    25.5990 hc         1 JWZ       0.056450
     56 H12         20.2920   -15.5430    29.2700 ho         1 JWZ       0.436000
     57 H13         18.8400   -16.6420    26.9140 h1         1 JWZ       0.036700
     58 H14         19.2030   -17.4490    28.4190 h1         1 JWZ       0.036700
     59 H16         19.6360   -17.5820    24.8620 h1         1 JWZ       0.039033
     60 H17         19.6110   -19.3270    24.7860 h1         1 JWZ       0.039033
     61 H18         18.1750   -18.4480    25.3500 h1         1 JWZ       0.039033
     62 H19         18.1930   -19.5100    27.6280 h1         1 JWZ       0.023700
     63 H20         19.7120   -19.5630    28.5050 h1         1 JWZ       0.023700
     64 H21         19.2120   -21.1340    25.9320 hc         1 JWZ       0.059200
     65 H22         18.8330   -21.6800    27.5320 hc         1 JWZ       0.059200
     66 H23         20.8420   -22.7210    26.9560 h1         1 JWZ       0.039200
     67 H24         21.1570   -21.5780    28.2450 h1         1 JWZ       0.039200
     68 H25         23.6050   -21.6870    27.5920 h2         1 JWZ       0.040200
     69 H26         23.1920   -19.9750    27.7820 h2         1 JWZ       0.040200
     70 H27         25.7070   -19.0060    24.2710 ha         1 JWZ       0.117000
     71 H28         27.9480   -18.2800    24.7600 ha         1 JWZ       0.112000
     72 H29         29.0020   -18.7420    26.9640 ha         1 JWZ       0.117000
     73 H30         27.6740   -19.9450    28.6890 ha         1 JWZ       0.112000
     74 H31         25.4320   -20.7170    28.2200 ha         1 JWZ       0.117000
     75 H32         23.7320   -18.1170    25.1140 hc         1 JWZ       0.061700
     76 H33         22.0380   -18.5060    25.0390 hc         1 JWZ       0.061700
     77 H34         23.9500   -18.0980    22.7070 h1         1 JWZ       0.032950
     78 H35         22.3970   -17.3550    23.0330 h1         1 JWZ       0.032950
     79 H36         23.9590   -21.9230    23.5690 hc         1 JWZ       0.061700
     80 H37         24.9210   -20.5000    23.3180 hc         1 JWZ       0.061700
     81 H38         22.4480   -21.3340    21.9090 h1         1 JWZ       0.032950
     82 H39         23.8030   -20.3510    21.3610 h1         1 JWZ       0.032950
     83 H41         21.3580   -19.7470    20.5560 h1         1 JWZ       0.027700
     84 H42         22.2000   -18.2110    20.5750 h1         1 JWZ       0.027700
     85 H43         20.4040   -17.4320    22.2890 hc         1 JWZ       0.049200
     86 H44         19.6160   -18.9640    22.0240 hc         1 JWZ       0.049200
     87 H45         19.3920   -18.4310    19.6050 hc         1 JWZ       0.042700
     88 H46         20.7640   -16.8270    18.7670 hc         1 JWZ       0.034200
     89 H47         21.0770   -16.1360    20.3220 hc         1 JWZ       0.034200
     90 H48         19.3640   -15.1020    18.2090 hc         1 JWZ       0.037700
     91 H49         19.8900   -14.3130    19.6730 hc         1 JWZ       0.037700
     92 H50         17.4160   -14.4000    19.5650 hc         1 JWZ       0.061700
     93 H51         16.3090   -16.7080    19.4460 hc         1 JWZ       0.049700
     94 H52         17.7330   -17.0960    18.4730 hc         1 JWZ       0.049700
     95 H53         17.5650   -18.0140    21.2470 hc         1 JWZ       0.061700
     96 H54         18.9570   -15.7600    23.2140 hc         1 JWZ       0.032867
     97 H55         20.0030   -15.2620    21.8910 hc         1 JWZ       0.032867
     98 H56         18.7580   -14.1740    22.4820 hc         1 JWZ       0.032867
     99 H57         16.5080   -16.1170    22.8800 hc         1 JWZ       0.032867
    100 H58         16.3980   -14.5170    22.1490 hc         1 JWZ       0.032867
    101 H59         15.7460   -15.9180    21.3100 hc         1 JWZ       0.032867
@<TRIPOS>BOND
     1     1     2 1   
     2     1     9 1   
     3     1    45 1   
     4     1    46 1   
     5     2     3 1   
     6     2    47 1   
     7     2    48 1   
     8     3     4 1   
     9     3     7 1   
    10     4     5 2   
    11     4     6 1   
    12     5    49 1   
    13     6    50 1   
    14     6    51 1   
    15     7     8 1   
    16     7    52 1   
    17     7    53 1   
    18     8     9 1   
    19     8    54 1   
    20     8    55 1   
    21     9    10 1   
    22     9    11 1   
    23    10    56 1   
    24    11    12 1   
    25    11    57 1   
    26    11    58 1   
    27    12    13 1   
    28    12    14 1   
    29    13    59 1   
    30    13    60 1   
    31    13    61 1   
    32    14    15 1   
    33    14    62 1   
    34    14    63 1   
    35    15    16 1   
    36    15    64 1   
    37    15    65 1   
    38    16    17 1   
    39    16    66 1   
    40    16    67 1   
    41    17    18 1   
    42    17    20 1   
    43    18    19 2   
    44    18    28 1   
    45    20    21 1   
    46    20    68 1   
    47    20    69 1   
    48    21    22 1   
    49    21    28 1   
    50    22    23 ar  
    51    22    27 ar  
    52    23    24 ar  
    53    23    70 1   
    54    24    25 ar  
    55    24    71 1   
    56    25    26 ar  
    57    25    72 1   
    58    26    27 ar  
    59    26    73 1   
    60    27    74 1   
    61    28    29 1   
    62    28    31 1   
    63    29    30 1   
    64    29    75 1   
    65    29    76 1   
    66    30    33 1   
    67    30    77 1   
    68    30    78 1   
    69    31    32 1   
    70    31    79 1   
    71    31    80 1   
    72    32    33 1   
    73    32    81 1   
    74    32    82 1   
    75    33    34 1   
    76    34    35 1   
    77    34    83 1   
    78    34    84 1   
    79    35    36 1   
    80    35    85 1   
    81    35    86 1   
    82    36    37 1   
    83    36    41 1   
    84    36    87 1   
    85    37    38 1   
    86    37    88 1   
    87    37    89 1   
    88    38    39 1   
    89    38    90 1   
    90    38    91 1   
    91    39    40 1   
    92    39    42 1   
    93    39    92 1   
    94    40    41 1   
    95    40    93 1   
    96    40    94 1   
    97    41    42 1   
    98    41    95 1   
    99    42    43 1   
   100    42    44 1   
   101    43    96 1   
   102    43    97 1   
   103    43    98 1   
   104    44    99 1   
   105    44   100 1   
   106    44   101 1   
@<TRIPOS>SUBSTRUCTURE
     1 JWZ         1 TEMP              0 ****  ****    0 ROOT
