@<TRIPOS>MOLECULE
JX0
   42    45     1     0     0
SMALL
No Charge or Current Charge


@<TRIPOS>ATOM
      1 N3          13.6660    36.9640   -14.2510 na         1 JX0       0.240000
      2 C6          13.7200    40.6440   -13.3880 cc         1 JX0      -0.283600
      3 C7          12.8450    39.8790   -12.6080 cd         1 JX0      -0.014000
      4 C8          12.2600    37.3100   -12.6900 cd         1 JX0       0.320300
      5 C13         13.7430    35.4400   -16.1510 ca         1 JX0      -0.111500
      6 C15         15.8730    34.9020   -17.2010 ca         1 JX0       0.108000
      7 C17         14.4780    34.7540   -17.1360 ca         1 JX0      -0.085500
      8 C20         13.5480    44.1930   -11.9260 c6         1 JX0       0.098000
      9 C21         11.6330    42.7320   -12.5620 c6         1 JX0       0.098000
     10 C22         10.9560    43.9210   -13.2890 c6         1 JX0      -0.099900
     11 C24         11.3820    45.2780   -12.6870 c6         1 JX0      -0.074400
     12 C1          13.8910    38.2600   -13.8510 cc         1 JX0      -0.201000
     13 C2          12.9380    38.5180   -12.9780 cd         1 JX0      -0.195000
     14 N4          12.7000    36.3190   -13.4760 nc         1 JX0      -0.500800
     15 S5          14.6140    39.6550   -14.5870 ss         1 JX0       0.286000
     16 C9          14.0130    42.0920   -13.2510 c          1 JX0       0.643700
     17 N10         13.1160    42.8890   -12.5010 n          1 JX0      -0.399800
     18 C11         14.4000    36.2800   -15.2260 ca         1 JX0       0.032800
     19 O12         15.0140    42.5850   -13.7540 o          1 JX0      -0.606100
     20 C14         15.8030    36.4190   -15.2980 ca         1 JX0      -0.111500
     21 C16         16.5360    35.7320   -16.2830 ca         1 JX0      -0.085500
     22 C19         11.1240    37.1070   -11.7310 c3         1 JX0      -0.124400
     23 C23         12.9220    45.3930   -12.6720 c6         1 JX0      -0.099900
     24 H1          12.1910    40.2490   -11.8250 ha         1 JX0       0.140000
     25 H2          12.6620    35.3220   -16.1090 ha         1 JX0       0.138500
     26 H3          13.9670    34.1100   -17.8470 ha         1 JX0       0.134500
     27 H4          13.2460    44.2270   -10.8700 h1         1 JX0       0.055700
     28 H5          14.6440    44.2790   -11.9450 h1         1 JX0       0.055700
     29 H6          11.3520    41.8240   -13.1100 h1         1 JX0       0.055700
     30 H7          11.2370    42.6470   -11.5400 h1         1 JX0       0.055700
     31 H8          11.2240    43.8930   -14.3550 hc         1 JX0       0.050950
     32 H9           9.8630    43.8130   -13.2400 hc         1 JX0       0.050950
     33 H10         10.9470    46.1030   -13.2680 hc         1 JX0       0.042700
     34 H11         10.9910    45.3710   -11.6640 hc         1 JX0       0.042700
     35 H12         16.3280    37.0520   -14.5850 ha         1 JX0       0.138500
     36 H13         17.6170    35.8410   -16.3340 ha         1 JX0       0.134500
     37 H14         11.1600    36.1090   -11.2790 hc         1 JX0       0.053700
     38 H15         11.1600    37.8430   -10.9200 hc         1 JX0       0.053700
     39 H16         10.1610    37.2140   -12.2420 hc         1 JX0       0.053700
     40 H17         13.2260    46.3320   -12.1900 hc         1 JX0       0.050950
     41 H18         13.3050    45.4280   -13.7010 hc         1 JX0       0.050950
     42 Cl18        16.7900    34.0450   -18.4320 cl         1 JX0      -0.193000
@<TRIPOS>BOND
     1     1    12 1   
     2     1    14 1   
     3     1    18 1   
     4     2     3 2   
     5     2    15 1   
     6     2    16 1   
     7     3    13 1   
     8     3    24 1   
     9     4    13 1   
    10     4    14 2   
    11     4    22 1   
    12     5     7 ar  
    13     5    18 ar  
    14     5    25 1   
    15     6     7 ar  
    16     6    21 ar  
    17     6    42 1   
    18     7    26 1   
    19     8    17 1   
    20     8    23 1   
    21     8    27 1   
    22     8    28 1   
    23     9    10 1   
    24     9    17 1   
    25     9    29 1   
    26     9    30 1   
    27    10    11 1   
    28    10    31 1   
    29    10    32 1   
    30    11    23 1   
    31    11    33 1   
    32    11    34 1   
    33    12    13 2   
    34    12    15 1   
    35    16    17 1   
    36    16    19 2   
    37    18    20 ar  
    38    20    21 ar  
    39    20    35 1   
    40    21    36 1   
    41    22    37 1   
    42    22    38 1   
    43    22    39 1   
    44    23    40 1   
    45    23    41 1   
@<TRIPOS>SUBSTRUCTURE
     1 JX0         1 TEMP              0 ****  ****    0 ROOT
