@<TRIPOS>MOLECULE
JX0
   42    45     1     0     0
SMALL
bcc


@<TRIPOS>ATOM
      1 N3          13.6550    37.0260   -14.2450 na         1 JX0       0.189300
      2 C6          13.5780    40.6190   -13.0460 cc         1 JX0      -0.138700
      3 C7          12.6960    39.8200   -12.3850 cd         1 JX0      -0.032000
      4 C8          12.1580    37.2000   -12.7070 cd         1 JX0       0.385600
      5 C13         13.8550    35.2520   -15.8700 ca         1 JX0      -0.129500
      6 C15         15.8010    35.1130   -17.2620 ca         1 JX0       0.016400
      7 C17         14.5650    34.6170   -16.8740 ca         1 JX0      -0.103500
      8 C20         13.5270    44.2130   -11.8940 c6         1 JX0       0.098000
      9 C21         11.6410    42.8040   -12.5290 c6         1 JX0       0.098000
     10 C22         11.1270    43.8970   -13.4610 c6         1 JX0      -0.099900
     11 C24         11.5650    45.2830   -13.0090 c6         1 JX0      -0.074400
     12 C1          13.7060    38.3120   -13.8400 cc         1 JX0      -0.005400
     13 C2          12.7580    38.4800   -12.8480 cd         1 JX0      -0.260300
     14 N4          12.7060    36.3560   -13.5470 nc         1 JX0      -0.500800
     15 S5          14.5510    39.7500   -14.2240 ss         1 JX0      -0.003800
     16 C9          13.9920    42.0240   -12.8300 c          1 JX0       0.710700
     17 N10         13.0850    42.9060   -12.3630 n          1 JX0      -0.466800
     18 C11         14.3860    36.3780   -15.2490 ca         1 JX0       0.032800
     19 O12         15.1650    42.3120   -13.0500 o          1 JX0      -0.606100
     20 C14         15.6340    36.8580   -15.6300 ca         1 JX0      -0.129500
     21 C16         16.3400    36.2300   -16.6450 ca         1 JX0      -0.103500
     22 C19         11.0750    36.7940   -11.7750 c3         1 JX0      -0.124400
     23 C23         13.0780    45.3260   -12.8290 c6         1 JX0      -0.099900
     24 H1          12.0480    40.1640   -11.5920 ha         1 JX0       0.158000
     25 H2          12.8880    34.8700   -15.5770 ha         1 JX0       0.156500
     26 H3          14.1470    33.7440   -17.3570 ha         1 JX0       0.152500
     27 H4          13.0860    44.3710   -10.9040 h1         1 JX0       0.055700
     28 H5          14.6070    44.2070   -11.7730 h1         1 JX0       0.055700
     29 H6          11.3760    41.8340   -12.9360 h1         1 JX0       0.055700
     30 H7          11.1640    42.8910   -11.5470 h1         1 JX0       0.055700
     31 H8          11.4990    43.7010   -14.4710 hc         1 JX0       0.050950
     32 H9          10.0380    43.8290   -13.5050 hc         1 JX0       0.050950
     33 H10         11.2400    46.0370   -13.7280 hc         1 JX0       0.042700
     34 H11         11.0810    45.5260   -12.0570 hc         1 JX0       0.042700
     35 H12         16.0920    37.7030   -15.1330 ha         1 JX0       0.156500
     36 H13         17.3090    36.6090   -16.9370 ha         1 JX0       0.152500
     37 H14         10.8090    35.7490   -11.9180 hc         1 JX0       0.053700
     38 H15         11.3830    36.9320   -10.7380 hc         1 JX0       0.053700
     39 H16         10.1820    37.4010   -11.9300 hc         1 JX0       0.053700
     40 H17         13.3920    46.2870   -12.4150 hc         1 JX0       0.050950
     41 H18         13.5770    45.2140   -13.7960 hc         1 JX0       0.050950
     42 CL18        16.6820    34.3260   -18.5270 cl         1 JX0      -0.101400
@<TRIPOS>BOND
     1     1    12 1   
     2     1    14 1   
     3     1    18 1   
     4     2     3 2   
     5     2    15 1   
     6     2    16 1   
     7     3    13 1   
     8     3    24 1   
     9     4    13 1   
    10     4    14 2   
    11     4    22 1   
    12     5     7 ar  
    13     5    18 ar  
    14     5    25 1   
    15     6     7 ar  
    16     6    21 ar  
    17     6    42 1   
    18     7    26 1   
    19     8    17 1   
    20     8    23 1   
    21     8    27 1   
    22     8    28 1   
    23     9    10 1   
    24     9    17 1   
    25     9    29 1   
    26     9    30 1   
    27    10    11 1   
    28    10    31 1   
    29    10    32 1   
    30    11    23 1   
    31    11    33 1   
    32    11    34 1   
    33    12    13 2   
    34    12    15 1   
    35    16    17 1   
    36    16    19 2   
    37    18    20 ar  
    38    20    21 ar  
    39    20    35 1   
    40    21    36 1   
    41    22    37 1   
    42    22    38 1   
    43    22    39 1   
    44    23    40 1   
    45    23    41 1   
@<TRIPOS>SUBSTRUCTURE
     1 JX0         1 TEMP              0 ****  ****    0 ROOT
