@<TRIPOS>MOLECULE
JX1
   59    63     1     0     0
SMALL
bcc


@<TRIPOS>ATOM
      1 CAW         -1.3680    -4.8210     0.1750 c3         1 JX1       0.121700
      2 OAV         -0.6900    -4.1950    -0.8960 os         1 JX1      -0.317900
      3 CAK          0.1260    -3.1640    -0.6230 ca         1 JX1       0.152100
      4 CAL          0.4510    -2.7370     0.6630 ca         1 JX1      -0.196500
      5 CAM          1.2790    -1.6360     0.8330 ca         1 JX1      -0.079000
      6 CAJ          0.6630    -2.4930    -1.7240 ca         1 JX1      -0.196500
      7 CAI          1.4730    -1.3900    -1.5380 ca         1 JX1      -0.079000
      8 CAG          1.7840    -0.9330    -0.2550 ca         1 JX1      -0.057000
      9 CAD          2.5900     0.2850    -0.0790 cc         1 JX1      -0.373600
     10 CAC          3.9510     0.3700    -0.0700 cd         1 JX1       0.445600
     11 NAH          4.8620    -0.6420    -0.1620 ns         1 JX1      -0.556400
     12 CAX          6.2340    -0.5480    -0.1270 c          1 JX1       0.677100
     13 CAZ          6.9420    -1.8630    -0.3000 c3         1 JX1      -0.180100
     14 OAY          6.8130     0.5060     0.0110 o          1 JX1      -0.526100
     15 OAB          4.3500     1.6290     0.0290 os         1 JX1      -0.078100
     16 NAA          3.2440     2.4300     0.0970 nd         1 JX1      -0.447300
     17 CAE          2.1950     1.6490     0.0270 cc         1 JX1       0.477800
     18 CAF          0.8580     2.2380     0.0140 ca         1 JX1      -0.295500
     19 CAN         -0.2610     1.4750     0.3360 ca         1 JX1      -0.005000
     20 CAR          0.6550     3.5890    -0.3370 ca         1 JX1       0.237100
     21 OAS          1.6530     4.4280    -0.6320 oh         1 JX1      -0.495100
     22 CAQ         -0.6370     4.0960    -0.4050 ca         1 JX1      -0.235000
     23 CAP         -1.7340     3.3020    -0.0950 ca         1 JX1       0.215100
     24 OAT         -2.9460     3.8680    -0.1940 oh         1 JX1      -0.488100
     25 CAO         -1.5540     1.9690     0.3010 cp         1 JX1      -0.194000
     26 CAU         -2.6920     1.1070     0.6960 cp         1 JX1      -0.024000
     27 CBE         -2.9980    -0.0850    -0.0240 ca         1 JX1      -0.132300
     28 CBF         -2.3210    -0.4670    -1.2030 ca         1 JX1      -0.075000
     29 CBG         -2.6620    -1.6300    -1.8320 ca         1 JX1      -0.245300
     30 CBH         -3.6780    -2.4240    -1.2720 ca         1 JX1       0.417200
     31 NBI         -4.3380    -2.0990    -0.1930 nb         1 JX1      -0.673000
     32 CBD         -4.0300    -0.9430     0.4370 ca         1 JX1       0.395600
     33 CBA         -4.7890    -0.5980     1.5920 ca         1 JX1      -0.104600
     34 CBJ         -5.8760    -1.5060     2.0740 c3         1 JX1      -0.039800
     35 CBB         -4.4920     0.5750     2.2350 ca         1 JX1      -0.130000
     36 CBC         -3.4500     1.4160     1.7990 ca         1 JX1      -0.123000
     37 H1          -0.6790    -5.3210     0.8600 h1         1 JX1       0.045033
     38 H2          -1.9760    -4.1100     0.7400 h1         1 JX1       0.045033
     39 H3          -2.0230    -5.5670    -0.2680 h1         1 JX1       0.045033
     40 H4           0.0600    -3.2360     1.5400 ha         1 JX1       0.143500
     41 H5           1.5120    -1.3050     1.8380 ha         1 JX1       0.138500
     42 H6           0.4200    -2.8290    -2.7240 ha         1 JX1       0.143500
     43 H7           1.8590    -0.8650    -2.4020 ha         1 JX1       0.138500
     44 H8           4.4540    -1.5610    -0.2630 hn         1 JX1       0.343500
     45 H9           6.2890    -2.7290    -0.2130 hc         1 JX1       0.070033
     46 H10          7.4050    -1.8850    -1.2880 hc         1 JX1       0.070033
     47 H11          7.7380    -1.9460     0.4370 hc         1 JX1       0.070033
     48 H12         -0.1260     0.4480     0.6420 ha         1 JX1       0.146000
     49 H13          2.5150     3.9910    -0.4870 ho         1 JX1       0.471000
     50 H14         -0.7880     5.1280    -0.6960 ha         1 JX1       0.167000
     51 H15         -3.6390     3.2220    -0.0050 ho         1 JX1       0.440000
     52 H16         -1.5410     0.1630    -1.6080 ha         1 JX1       0.149000
     53 H17         -2.1650    -1.9460    -2.7380 ha         1 JX1       0.145000
     54 H18         -3.9520    -3.3600    -1.7490 h4         1 JX1       0.018100
     55 H19         -5.4940    -2.5040     2.2900 hc         1 JX1       0.048033
     56 H20         -6.3350    -1.1150     2.9810 hc         1 JX1       0.048033
     57 H21         -6.6590    -1.6250     1.3230 hc         1 JX1       0.048033
     58 H22         -5.0540     0.8600     3.1160 ha         1 JX1       0.136000
     59 H23         -3.2250     2.3040     2.3770 ha         1 JX1       0.140000
@<TRIPOS>BOND
     1     1     2 1   
     2     1    37 1   
     3     1    38 1   
     4     1    39 1   
     5     2     3 1   
     6     3     4 ar  
     7     3     6 ar  
     8     4     5 ar  
     9     4    40 1   
    10     5     8 ar  
    11     5    41 1   
    12     6     7 ar  
    13     6    42 1   
    14     7     8 ar  
    15     7    43 1   
    16     8     9 1   
    17     9    10 2   
    18     9    17 1   
    19    10    11 1   
    20    10    15 1   
    21    11    12 1   
    22    11    44 1   
    23    12    13 1   
    24    12    14 2   
    25    13    45 1   
    26    13    46 1   
    27    13    47 1   
    28    15    16 1   
    29    16    17 2   
    30    17    18 1   
    31    18    19 ar  
    32    18    20 ar  
    33    19    25 ar  
    34    19    48 1   
    35    20    21 1   
    36    20    22 ar  
    37    21    49 1   
    38    22    23 ar  
    39    22    50 1   
    40    23    24 1   
    41    23    25 ar  
    42    24    51 1   
    43    25    26 1   
    44    26    27 ar  
    45    26    36 ar  
    46    27    28 ar  
    47    27    32 ar  
    48    28    29 ar  
    49    28    52 1   
    50    29    30 ar  
    51    29    53 1   
    52    30    31 ar  
    53    30    54 1   
    54    31    32 ar  
    55    32    33 ar  
    56    33    34 1   
    57    33    35 ar  
    58    34    55 1   
    59    34    56 1   
    60    34    57 1   
    61    35    36 ar  
    62    35    58 1   
    63    36    59 1   
@<TRIPOS>SUBSTRUCTURE
     1 JX1         1 TEMP              0 ****  ****    0 ROOT
