@<TRIPOS>MOLECULE
JX1
   59    63     1     0     0
SMALL
No Charge or Current Charge


@<TRIPOS>ATOM
      1 CAW         -0.1870    -5.6360    -0.2270 c3         1 JX1       0.144900
      2 OAV         -0.2870    -4.4310    -1.0070 os         1 JX1      -0.341100
      3 CAK          0.4180    -3.2880    -0.6880 ca         1 JX1       0.152100
      4 CAL          1.2960    -3.2150     0.4130 ca         1 JX1      -0.178500
      5 CAM          1.9860    -2.0200     0.6860 ca         1 JX1      -0.061000
      6 CAJ          0.2420    -2.1620    -1.5030 ca         1 JX1      -0.178500
      7 CAI          0.9240    -0.9650    -1.2250 ca         1 JX1      -0.061000
      8 CAG          1.8070    -0.8830    -0.1300 ca         1 JX1      -0.057000
      9 CAD          2.5270     0.3710     0.1440 cc         1 JX1      -0.243000
     10 CAC          3.8740     0.3940     0.3380 cd         1 JX1       0.335900
     11 NAH          4.7140    -0.6990     0.3830 ns         1 JX1      -0.489400
     12 CAX          6.0760    -0.7110     0.5630 c          1 JX1       0.610100
     13 CAZ          6.7010    -2.0990     0.5370 c3         1 JX1      -0.180100
     14 OAY          6.7430     0.2980     0.7350 o          1 JX1      -0.526100
     15 OAB          4.3420     1.6770     0.3120 os         1 JX1      -0.033700
     16 NAA          3.2370     2.5470     0.0210 nd         1 JX1      -0.447300
     17 CAE          2.1930     1.7330    -0.0950 cc         1 JX1       0.412500
     18 CAF          0.8320     2.2740    -0.2920 ca         1 JX1      -0.295500
     19 CAN         -0.2880     1.5450     0.1720 ca         1 JX1       0.013000
     20 CAR          0.5970     3.5620    -0.8330 ca         1 JX1       0.237100
     21 OAS          1.6220     4.3450    -1.2600 oh         1 JX1      -0.534100
     22 CAQ         -0.7040     4.0580    -0.9680 ca         1 JX1      -0.217000
     23 CAP         -1.7980     3.3070    -0.5360 ca         1 JX1       0.215100
     24 OAT         -3.0490     3.8230    -0.6780 oh         1 JX1      -0.527100
     25 CAO         -1.6060     2.0390     0.0490 cp         1 JX1      -0.194000
     26 CAU         -2.7490     1.2320     0.5660 cp         1 JX1      -0.024000
     27 CBE         -3.2610     0.1040    -0.1310 ca         1 JX1      -0.067000
     28 CBF         -2.7200    -0.2740    -1.3780 ca         1 JX1      -0.057000
     29 CBG         -3.2510    -1.3900    -2.0380 ca         1 JX1      -0.162000
     30 CBH         -4.3000    -2.0970    -1.4390 ca         1 JX1       0.351900
     31 NBI         -4.8350    -1.7440    -0.2500 nb         1 JX1      -0.673000
     32 CBD         -4.3370    -0.6620     0.4070 ca         1 JX1       0.265000
     33 CBA         -4.8960    -0.2750     1.6530 ca         1 JX1      -0.039300
     34 CBJ         -6.0500    -1.0590     2.2770 c3         1 JX1      -0.039800
     35 CBB         -4.3900     0.8460     2.3360 ca         1 JX1      -0.112000
     36 CBC         -3.3310     1.5880     1.7990 ca         1 JX1      -0.105000
     37 H1           0.8450    -6.0100    -0.2170 h1         1 JX1       0.045033
     38 H2          -0.5080    -5.4580     0.8080 h1         1 JX1       0.045033
     39 H3          -0.8280    -6.4180    -0.6510 h1         1 JX1       0.045033
     40 H4           1.4500    -4.0660     1.0690 ha         1 JX1       0.125500
     41 H5           2.6350    -1.9740     1.5580 ha         1 JX1       0.120500
     42 H6          -0.4250    -2.2170    -2.3590 ha         1 JX1       0.125500
     43 H7           0.7820    -0.1080    -1.8790 ha         1 JX1       0.120500
     44 H8           4.3020    -1.6130     0.2560 hn         1 JX1       0.343500
     45 H9           6.2050    -2.7280     1.2840 hc         1 JX1       0.070033
     46 H10          6.4340    -2.5940    -0.4030 hc         1 JX1       0.070033
     47 H11          7.7870    -2.0740     0.6860 hc         1 JX1       0.070033
     48 H12         -0.1550     0.5900     0.6730 ha         1 JX1       0.128000
     49 H13          2.4480     3.9120    -0.9380 ho         1 JX1       0.510000
     50 H14         -0.8630     5.0390    -1.4040 ha         1 JX1       0.149000
     51 H15         -3.6770     3.1600    -0.3230 ho         1 JX1       0.479000
     52 H16         -1.9070     0.2820    -1.8380 ha         1 JX1       0.131000
     53 H17         -2.8610    -1.7080    -3.0000 ha         1 JX1       0.127000
     54 H18         -4.7330    -2.9700    -1.9280 h4         1 JX1       0.018100
     55 H19         -5.7650    -2.1020     2.4580 hc         1 JX1       0.048033
     56 H20         -6.3630    -0.6340     3.2380 hc         1 JX1       0.048033
     57 H21         -6.9270    -1.0590     1.6180 hc         1 JX1       0.048033
     58 H22         -4.8170     1.1440     3.2920 ha         1 JX1       0.118000
     59 H23         -2.9460     2.4450     2.3480 ha         1 JX1       0.122000
@<TRIPOS>BOND
     1     1     2 1   
     2     1    37 1   
     3     1    38 1   
     4     1    39 1   
     5     2     3 1   
     6     3     4 ar  
     7     3     6 ar  
     8     4     5 ar  
     9     4    40 1   
    10     5     8 ar  
    11     5    41 1   
    12     6     7 ar  
    13     6    42 1   
    14     7     8 ar  
    15     7    43 1   
    16     8     9 1   
    17     9    10 2   
    18     9    17 1   
    19    10    11 1   
    20    10    15 1   
    21    11    12 1   
    22    11    44 1   
    23    12    13 1   
    24    12    14 2   
    25    13    45 1   
    26    13    46 1   
    27    13    47 1   
    28    15    16 1   
    29    16    17 2   
    30    17    18 1   
    31    18    19 ar  
    32    18    20 ar  
    33    19    25 ar  
    34    19    48 1   
    35    20    21 1   
    36    20    22 ar  
    37    21    49 1   
    38    22    23 ar  
    39    22    50 1   
    40    23    24 1   
    41    23    25 ar  
    42    24    51 1   
    43    25    26 1   
    44    26    27 ar  
    45    26    36 ar  
    46    27    28 ar  
    47    27    32 ar  
    48    28    29 ar  
    49    28    52 1   
    50    29    30 ar  
    51    29    53 1   
    52    30    31 ar  
    53    30    54 1   
    54    31    32 ar  
    55    32    33 ar  
    56    33    34 1   
    57    33    35 ar  
    58    34    55 1   
    59    34    56 1   
    60    34    57 1   
    61    35    36 ar  
    62    35    58 1   
    63    36    59 1   
@<TRIPOS>SUBSTRUCTURE
     1 JX1         1 TEMP              0 ****  ****    0 ROOT
