@<TRIPOS>MOLECULE
JX2
   70    74     1     0     0
SMALL
No Charge or Current Charge


@<TRIPOS>ATOM
      1 C1           3.1280     4.8600    -0.0870 c3         1 JX2       0.145900
      2 N2          -2.6420     0.0620     0.5030 n2         1 JX2      -0.446300
      3 C3           0.4190     3.8230     0.0140 ca         1 JX2      -0.214000
      4 C5          -1.1090     1.9460     0.4050 ca         1 JX2      -0.159900
      5 C6           0.0160     1.1270     0.6630 ca         1 JX2      -0.008000
      6 C7           1.3250     1.6440     0.6100 ca         1 JX2      -0.037000
      7 C9           3.3750     0.0460     1.1150 cg         1 JX2      -0.180200
      8 C10          4.5590    -0.7520     1.3620 c          1 JX2       0.648300
      9 C11          7.0710    -0.6590     1.4780 c3         1 JX2       0.079700
     10 C12          7.5570    -1.4130     0.2670 cc         1 JX2       0.090300
     11 C13          7.4890    -1.1130    -1.0660 cd         1 JX2      -0.175000
     12 C14          8.1050    -2.1750    -1.7590 cd         1 JX2      -0.193000
     13 C15          8.5240    -3.0800    -0.8220 cc         1 JX2       0.129900
     14 C16         -2.4950     1.3540     0.4460 ce         1 JX2       0.395900
     15 C17         -3.9660    -1.9500    -0.1880 c3         1 JX2       0.138700
     16 C18         -3.6470    -2.9430     0.9640 c3         1 JX2      -0.080900
     17 C19         -4.0450    -4.4170     0.7310 c3         1 JX2      -0.069900
     18 C2           1.5340     3.0020     0.2850 ca         1 JX2       0.181100
     19 C20         -3.4680    -5.0820    -0.5400 c3         1 JX2      -0.072400
     20 C21         -4.0960    -4.5540    -1.8480 c3         1 JX2      -0.072400
     21 C22         -3.4740    -3.2610    -2.4230 c3         1 JX2      -0.069900
     22 C23         -3.0350    -2.1720    -1.4140 c3         1 JX2      -0.080900
     23 C24         -5.0710     0.1100     0.7410 c          1 JX2       0.558000
     24 C25         -4.9210     1.5940     1.1600 c6         1 JX2      -0.142700
     25 C26         -6.2130     2.4540     1.0420 c6         1 JX2      -0.029200
     26 C27         -6.4810     2.9450    -0.3700 c2         1 JX2      -0.209200
     27 C28         -5.5470     2.9630    -1.3320 c2         1 JX2      -0.225200
     28 C29         -4.1190     2.4850    -1.1260 c6         1 JX2      -0.038200
     29 C30         -3.7430     2.2540     0.3720 c6         1 JX2      -0.127000
     30 C4          -0.8830     3.3010     0.0690 ca         1 JX2      -0.040000
     31 N1           5.7430    -0.0610     1.2920 ns         1 JX2      -0.499900
     32 N3          -3.8790    -0.5510     0.3090 n          1 JX2      -0.179800
     33 O1           2.8290     3.4900     0.2370 os         1 JX2      -0.329100
     34 O2           4.4920    -1.9470     1.6130 o          1 JX2      -0.575100
     35 O3           8.1940    -2.6230     0.4360 os         1 JX2      -0.218000
     36 O4          -6.1370    -0.4840     0.8660 o          1 JX2      -0.531000
     37 H1           4.2110     5.0270    -0.0660 h1         1 JX2       0.045700
     38 H2           2.7650     5.1110    -1.0920 h1         1 JX2       0.045700
     39 H3           2.6640     5.5420     0.6370 h1         1 JX2       0.045700
     40 H4           0.5420     4.8700    -0.2460 ha         1 JX2       0.122000
     41 H5          -0.1180     0.0770     0.9160 ha         1 JX2       0.148000
     42 H6           7.0420    -1.3380     2.3410 h1         1 JX2       0.074200
     43 H7           7.7890     0.1390     1.7080 h1         1 JX2       0.074200
     44 H8           7.0430    -0.2230    -1.5010 ha         1 JX2       0.138000
     45 H9           8.2280    -2.2670    -2.8330 ha         1 JX2       0.141000
     46 H10          9.0370    -4.0290    -0.9020 h4         1 JX2       0.054100
     47 H11         -4.9960    -2.1260    -0.5250 h1         1 JX2       0.083700
     48 H12         -2.5760    -2.8920     1.1990 hc         1 JX2       0.048200
     49 H13         -4.1680    -2.6030     1.8680 hc         1 JX2       0.048200
     50 H14         -3.7170    -4.9980     1.6020 hc         1 JX2       0.037700
     51 H15         -5.1390    -4.4930     0.7120 hc         1 JX2       0.037700
     52 H16         -2.3770    -4.9760    -0.5670 hc         1 JX2       0.038700
     53 H17         -3.6730    -6.1580    -0.4750 hc         1 JX2       0.038700
     54 H18         -4.0160    -5.3350    -2.6150 hc         1 JX2       0.038700
     55 H19         -5.1720    -4.4000    -1.6940 hc         1 JX2       0.038700
     56 H20         -2.5990    -3.5320    -3.0270 hc         1 JX2       0.037700
     57 H21         -4.1960    -2.8220    -3.1220 hc         1 JX2       0.037700
     58 H22         -2.9560    -1.2330    -1.9750 hc         1 JX2       0.048200
     59 H23         -2.0190    -2.3920    -1.0620 hc         1 JX2       0.048200
     60 H24         -4.6150     1.5520     2.2150 hc         1 JX2       0.078700
     61 H25         -7.0810     1.8920     1.4150 hc         1 JX2       0.063200
     62 H26         -6.1250     3.3300     1.7000 hc         1 JX2       0.063200
     63 H27         -7.4950     3.2980    -0.5730 ha         1 JX2       0.177000
     64 H28         -5.7910     3.3300    -2.3320 ha         1 JX2       0.176000
     65 H29         -3.9870     1.5540    -1.6960 hc         1 JX2       0.057200
     66 H30         -3.4250     3.2080    -1.5770 hc         1 JX2       0.057200
     67 H31         -3.5350     3.2240     0.8420 hc         1 JX2       0.071700
     68 H32         -1.7080     3.9700    -0.1580 ha         1 JX2       0.116000
     69 H33          5.6740     0.9270     1.0780 hn         1 JX2       0.325500
     70 C8           2.4240     0.7760     0.8850 ch         1 JX2      -0.023000
@<TRIPOS>BOND
     1     1    33 1   
     2     1    37 1   
     3     1    38 1   
     4     1    39 1   
     5     2    14 2   
     6     2    32 1   
     7     3    18 ar  
     8     3    30 ar  
     9     3    40 1   
    10     4     5 ar  
    11     4    14 1   
    12     4    30 ar  
    13     5     6 ar  
    14     5    41 1   
    15     6    18 ar  
    16     6    70 1   
    17     7     8 1   
    18     7    70 3   
    19     8    31 1   
    20     8    34 2   
    21     9    10 1   
    22     9    31 1   
    23     9    42 1   
    24     9    43 1   
    25    10    11 2   
    26    10    35 1   
    27    11    12 1   
    28    11    44 1   
    29    12    13 2   
    30    12    45 1   
    31    13    35 1   
    32    13    46 1   
    33    14    29 1   
    34    15    16 1   
    35    15    22 1   
    36    15    32 1   
    37    15    47 1   
    38    16    17 1   
    39    16    48 1   
    40    16    49 1   
    41    17    19 1   
    42    17    50 1   
    43    17    51 1   
    44    18    33 1   
    45    19    20 1   
    46    19    52 1   
    47    19    53 1   
    48    20    21 1   
    49    20    54 1   
    50    20    55 1   
    51    21    22 1   
    52    21    56 1   
    53    21    57 1   
    54    22    58 1   
    55    22    59 1   
    56    23    24 1   
    57    23    32 1   
    58    23    36 2   
    59    24    25 1   
    60    24    29 1   
    61    24    60 1   
    62    25    26 1   
    63    25    61 1   
    64    25    62 1   
    65    26    27 2   
    66    26    63 1   
    67    27    28 1   
    68    27    64 1   
    69    28    29 1   
    70    28    65 1   
    71    28    66 1   
    72    29    67 1   
    73    30    68 1   
    74    31    69 1   
@<TRIPOS>SUBSTRUCTURE
     1 JX2         1 TEMP              0 ****  ****    0 ROOT
