@<TRIPOS>MOLECULE
JX2
   70    74     1     0     0
SMALL
abcg2


@<TRIPOS>ATOM
      1 C1           2.9450     4.7890     0.1170 c3         1 JX2       0.145900
      2 N2          -2.6930     0.1230     0.2250 n2         1 JX2      -0.446300
      3 C3           0.2910     3.8440     0.0860 ca         1 JX2      -0.214000
      4 C5          -1.2300     1.9570     0.2790 ca         1 JX2      -0.159900
      5 C6          -0.1280     1.1310     0.4930 ca         1 JX2      -0.008000
      6 C7           1.1650     1.6380     0.5100 ca         1 JX2      -0.037000
      7 C9           3.1870     0.0270     0.9620 cg         1 JX2      -0.180200
      8 C10          4.2500    -0.9180     1.2350 c          1 JX2       0.648300
      9 C11          6.6840    -1.1400     1.4590 c3         1 JX2       0.079700
     10 C12          7.3360    -1.5780     0.1960 cc         1 JX2       0.090300
     11 C13          8.5440    -1.3000    -0.3520 cd         1 JX2      -0.175000
     12 C14          8.6010    -2.0180    -1.5860 cd         1 JX2      -0.193000
     13 C15          7.4190    -2.6680    -1.6900 cc         1 JX2       0.129900
     14 C16         -2.5890     1.3950     0.2370 ce         1 JX2       0.395900
     15 C17         -3.8640    -1.8890    -0.1670 c3         1 JX2       0.138700
     16 C18         -3.2790    -2.6400     1.0320 c3         1 JX2      -0.080900
     17 C19         -3.4330    -4.1570     0.9930 c3         1 JX2      -0.069900
     18 C2           1.3860     3.0150     0.2980 ca         1 JX2       0.181100
     19 C20         -2.9090    -4.8630    -0.2560 c3         1 JX2      -0.072400
     20 C21         -3.7770    -4.6170    -1.4900 c3         1 JX2      -0.072400
     21 C22         -3.4800    -3.3330    -2.2710 c3         1 JX2      -0.069900
     22 C23         -3.0570    -2.1150    -1.4490 c3         1 JX2      -0.080900
     23 C24         -5.0830     0.1610     0.5030 c          1 JX2       0.558000
     24 C25         -4.9040     1.5850     0.9810 c6         1 JX2      -0.142700
     25 C26         -6.1940     2.3900     0.9580 c6         1 JX2      -0.029200
     26 C27         -6.5200     2.9070    -0.4080 c2         1 JX2      -0.209200
     27 C28         -5.6510     2.9340    -1.4140 c2         1 JX2      -0.225200
     28 C29         -4.2350     2.4610    -1.3010 c6         1 JX2      -0.038200
     29 C30         -3.8080     2.2620     0.1620 c6         1 JX2      -0.127000
     30 C4          -0.9910     3.3170     0.0830 ca         1 JX2      -0.040000
     31 N1           5.4770    -0.3720     1.2360 ns         1 JX2      -0.499900
     32 N3          -3.9220    -0.4560     0.1400 n          1 JX2      -0.179800
     33 O1           2.6560     3.4150     0.3220 os         1 JX2      -0.329100
     34 O2           4.0100    -2.0940     1.4580 o          1 JX2      -0.575100
     35 O3           6.6470    -2.4110    -0.6140 os         1 JX2      -0.218000
     36 O4          -6.1570    -0.4160     0.4880 o          1 JX2      -0.531000
     37 H1           4.0260     4.8820     0.1610 h1         1 JX2       0.045700
     38 H2           2.5970     5.1330    -0.8590 h1         1 JX2       0.045700
     39 H3           2.5030     5.4140     0.8960 h1         1 JX2       0.045700
     40 H4           0.4160     4.9050    -0.0770 ha         1 JX2       0.122000
     41 H5          -0.2730     0.0710     0.6540 ha         1 JX2       0.148000
     42 H6           6.4420    -1.9940     2.0920 h1         1 JX2       0.074200
     43 H7           7.3900    -0.5210     2.0120 h1         1 JX2       0.074200
     44 H8           9.3020    -0.6590     0.0710 ha         1 JX2       0.138000
     45 H9           9.4110    -2.0430    -2.2960 ha         1 JX2       0.141000
     46 H10          7.0040    -3.3230    -2.4390 h4         1 JX2       0.054100
     47 H11         -4.8980    -2.1980    -0.3260 h1         1 JX2       0.083700
     48 H12         -2.2180    -2.3840     1.1110 hc         1 JX2       0.048200
     49 H13         -3.7570    -2.2740     1.9450 hc         1 JX2       0.048200
     50 H14         -2.9270    -4.5610     1.8730 hc         1 JX2       0.037700
     51 H15         -4.4920    -4.4130     1.1110 hc         1 JX2       0.037700
     52 H16         -1.8680    -4.5800    -0.4480 hc         1 JX2       0.038700
     53 H17         -2.8930    -5.9360    -0.0500 hc         1 JX2       0.038700
     54 H18         -3.6870    -5.4590    -2.1800 hc         1 JX2       0.038700
     55 H19         -4.8240    -4.6170    -1.1690 hc         1 JX2       0.038700
     56 H20         -2.6850    -3.5270    -2.9960 hc         1 JX2       0.037700
     57 H21         -4.3640    -3.0790    -2.8620 hc         1 JX2       0.037700
     58 H22         -3.1410    -1.2350    -2.0910 hc         1 JX2       0.048200
     59 H23         -1.9990    -2.1910    -1.1870 hc         1 JX2       0.048200
     60 H24         -4.5550     1.5040     2.0190 hc         1 JX2       0.078700
     61 H25         -7.0210     1.7900     1.3400 hc         1 JX2       0.063200
     62 H26         -6.1000     3.2290     1.6540 hc         1 JX2       0.063200
     63 H27         -7.5260     3.2830    -0.5640 ha         1 JX2       0.177000
     64 H28         -5.9620     3.3120    -2.3810 ha         1 JX2       0.176000
     65 H29         -4.1140     1.5340    -1.8750 hc         1 JX2       0.057200
     66 H30         -3.5670     3.1810    -1.7800 hc         1 JX2       0.057200
     67 H31         -3.6220     3.2400     0.6100 hc         1 JX2       0.071700
     68 H32         -1.8100     4.0030    -0.0840 ha         1 JX2       0.116000
     69 H33          5.5760     0.6020     0.9970 hn         1 JX2       0.325500
     70 C8           2.2650     0.7740     0.7490 ch         1 JX2      -0.023000
@<TRIPOS>BOND
     1     1    33 1   
     2     1    37 1   
     3     1    38 1   
     4     1    39 1   
     5     2    14 2   
     6     2    32 1   
     7     3    18 ar  
     8     3    30 ar  
     9     3    40 1   
    10     4     5 ar  
    11     4    14 1   
    12     4    30 ar  
    13     5     6 ar  
    14     5    41 1   
    15     6    18 ar  
    16     6    70 1   
    17     7     8 1   
    18     7    70 3   
    19     8    31 1   
    20     8    34 2   
    21     9    10 1   
    22     9    31 1   
    23     9    42 1   
    24     9    43 1   
    25    10    11 2   
    26    10    35 1   
    27    11    12 1   
    28    11    44 1   
    29    12    13 2   
    30    12    45 1   
    31    13    35 1   
    32    13    46 1   
    33    14    29 1   
    34    15    16 1   
    35    15    22 1   
    36    15    32 1   
    37    15    47 1   
    38    16    17 1   
    39    16    48 1   
    40    16    49 1   
    41    17    19 1   
    42    17    50 1   
    43    17    51 1   
    44    18    33 1   
    45    19    20 1   
    46    19    52 1   
    47    19    53 1   
    48    20    21 1   
    49    20    54 1   
    50    20    55 1   
    51    21    22 1   
    52    21    56 1   
    53    21    57 1   
    54    22    58 1   
    55    22    59 1   
    56    23    24 1   
    57    23    32 1   
    58    23    36 2   
    59    24    25 1   
    60    24    29 1   
    61    24    60 1   
    62    25    26 1   
    63    25    61 1   
    64    25    62 1   
    65    26    27 2   
    66    26    63 1   
    67    27    28 1   
    68    27    64 1   
    69    28    29 1   
    70    28    65 1   
    71    28    66 1   
    72    29    67 1   
    73    30    68 1   
    74    31    69 1   
@<TRIPOS>SUBSTRUCTURE
     1 JX2         1 TEMP              0 ****  ****    0 ROOT
