@<TRIPOS>MOLECULE
JX4
   52    56     1     0     0
SMALL
No Charge or Current Charge


@<TRIPOS>ATOM
      1 C10         -1.7750    -0.0700    -0.1360 cc         1 JX4      -0.086000
      2 C13         -3.4660     2.1580     0.3480 cc         1 JX4      -0.163000
      3 C15         -4.6100     4.4020     0.7570 c3         1 JX4       0.073900
      4 C17         -5.3560     0.9710     0.5680 cd         1 JX4       0.276900
      5 C20          1.9710     2.1200    -1.4170 ca         1 JX4      -0.027000
      6 C21          3.1920     1.8890    -0.7730 ca         1 JX4      -0.245000
      7 C22          3.3930     0.6490    -0.1540 ca         1 JX4       0.637900
      8 C24          5.7600     0.5330    -0.2680 c5         1 JX4       0.209500
      9 C26          7.7340    -0.1370     1.0550 c5         1 JX4       0.135800
     10 C28          6.4960     1.7100     0.4570 c5         1 JX4       0.114800
     11 C01         -5.6370    -3.1730     0.2530 c3         1 JX4       0.142900
     12 C03         -3.6990    -1.6610     0.0300 cd         1 JX4       0.167100
     13 C04         -2.8520    -2.7390    -0.1460 cc         1 JX4      -0.205000
     14 C05         -1.4770    -2.4770    -0.3630 cc         1 JX4      -0.033000
     15 C07          0.6750    -2.5290    -0.6250 cd         1 JX4       0.025600
     16 C08          0.3320    -1.1920    -0.6500 cc         1 JX4      -0.273900
     17 C11         -3.1460    -0.3060     0.0610 cd         1 JX4      -0.033000
     18 C12         -3.9620     0.8790     0.3160 cd         1 JX4      -0.152000
     19 C18          1.3050    -0.1050    -0.7000 ca         1 JX4       0.508800
     20 C19          1.0160     1.0940    -1.3810 ca         1 JX4      -0.238000
     21 C25          6.6660    -0.6990     0.0670 c5         1 JX4      -0.123400
     22 N06         -0.4660    -3.3200    -0.4850 nd         1 JX4      -0.311600
     23 N09         -1.0240    -1.1980    -0.4800 na         1 JX4       0.130100
     24 N14         -4.5860     2.9390     0.6170 na         1 JX4       0.134800
     25 N16         -5.7530     2.2160     0.7540 nc         1 JX4      -0.528800
     26 N23          4.5170     0.2850     0.5260 nu         1 JX4      -0.952100
     27 N27          7.1040     1.0620     1.6450 n7         1 JX4      -0.831400
     28 N29          2.4930    -0.3240    -0.0990 nb         1 JX4      -0.766000
     29 O02         -5.0460    -1.8600     0.2290 os         1 JX4      -0.326100
     30 H1          -1.2640     0.8770    -0.0840 h4         1 JX4       0.151000
     31 H2          -2.4800     2.5820     0.2120 h4         1 JX4       0.154000
     32 H3          -5.2750     4.8320    -0.0020 h1         1 JX4       0.057033
     33 H4          -4.9750     4.6690     1.7560 h1         1 JX4       0.057033
     34 H5          -3.5990     4.8050     0.6220 h1         1 JX4       0.057033
     35 H6          -6.1030     0.1920     0.6270 h4         1 JX4       0.046100
     36 H7           1.7710     3.0600    -1.9290 ha         1 JX4       0.113000
     37 H8           3.9610     2.6530    -0.7600 ha         1 JX4       0.122000
     38 H9           5.6060     0.6870    -1.3480 h1         1 JX4       0.069700
     39 H10          8.0160    -0.8720     1.8220 h1         1 JX4       0.053200
     40 H11          8.6500     0.1440     0.5130 h1         1 JX4       0.053200
     41 H12          7.2750     2.1350    -0.1930 h1         1 JX4       0.064200
     42 H13          5.8150     2.5260     0.7350 h1         1 JX4       0.064200
     43 H14         -5.4760    -3.6930    -0.7000 h1         1 JX4       0.046367
     44 H15         -5.2140    -3.7780     1.0650 h1         1 JX4       0.046367
     45 H16         -6.7190    -3.0970     0.4180 h1         1 JX4       0.046367
     46 H17         -3.1780    -3.7710    -0.1120 ha         1 JX4       0.148000
     47 H18          1.6700    -2.9640    -0.7010 h4         1 JX4       0.234000
     48 H19          0.0660     1.2200    -1.8910 ha         1 JX4       0.124000
     49 H20          6.1200    -1.5450     0.5020 hc         1 JX4       0.060200
     50 H21          7.1520    -1.0860    -0.8350 hc         1 JX4       0.060200
     51 H22          4.3580    -0.6450     0.8980 hn         1 JX4       0.502000
     52 H23          6.3160     0.7420     2.2240 hn         1 JX4       0.407000
@<TRIPOS>BOND
     1     1    17 2   
     2     1    23 1   
     3     1    30 1   
     4     2    18 2   
     5     2    24 1   
     6     2    31 1   
     7     3    24 1   
     8     3    32 1   
     9     3    33 1   
    10     3    34 1   
    11     4    18 1   
    12     4    25 2   
    13     4    35 1   
    14     5     6 ar  
    15     5    20 ar  
    16     5    36 1   
    17     6     7 ar  
    18     6    37 1   
    19     7    26 1   
    20     7    28 ar  
    21     8    10 1   
    22     8    21 1   
    23     8    26 1   
    24     8    38 1   
    25     9    21 1   
    26     9    27 1   
    27     9    39 1   
    28     9    40 1   
    29    10    27 1   
    30    10    41 1   
    31    10    42 1   
    32    11    29 1   
    33    11    43 1   
    34    11    44 1   
    35    11    45 1   
    36    12    13 2   
    37    12    17 1   
    38    12    29 1   
    39    13    14 1   
    40    13    46 1   
    41    14    22 2   
    42    14    23 1   
    43    15    16 2   
    44    15    22 1   
    45    15    47 1   
    46    16    19 1   
    47    16    23 1   
    48    17    18 1   
    49    19    20 ar  
    50    19    28 ar  
    51    20    48 1   
    52    21    49 1   
    53    21    50 1   
    54    24    25 1   
    55    26    51 1   
    56    27    52 1   
@<TRIPOS>SUBSTRUCTURE
     1 JX4         1 TEMP              0 ****  ****    0 ROOT
