@<TRIPOS>MOLECULE
JX4
   52    56     1     0     0
SMALL
abcg2


@<TRIPOS>ATOM
      1 C10         -1.7740    -0.1620    -0.2530 cc         1 JX4      -0.086000
      2 C13         -3.4830     2.1160     0.8370 cc         1 JX4      -0.163000
      3 C15         -4.5470     4.3340     1.2650 c3         1 JX4       0.073900
      4 C17         -5.2030     1.2460    -0.2090 cd         1 JX4       0.276900
      5 C20          2.0260     1.7130    -1.8430 ca         1 JX4      -0.027000
      6 C21          3.3130     1.4460    -1.4330 ca         1 JX4      -0.245000
      7 C22          3.5550     0.2150    -0.7890 ca         1 JX4       0.637900
      8 C24          5.9830     0.6540    -0.4620 c5         1 JX4       0.209500
      9 C26          7.2970     0.0290     1.4900 c5         1 JX4       0.135800
     10 C28          5.9910     1.7480     0.6190 c5         1 JX4       0.114800
     11 C01         -5.6080    -2.8470     0.6550 c3         1 JX4       0.142900
     12 C03         -3.6690    -1.5730     0.1990 cd         1 JX4       0.167100
     13 C04         -2.8810    -2.6850     0.0850 cc         1 JX4      -0.205000
     14 C05         -1.5110    -2.5370    -0.2010 cc         1 JX4      -0.033000
     15 C07          0.5660    -2.7810    -0.5710 cd         1 JX4       0.025600
     16 C08          0.3620    -1.4230    -0.6380 cc         1 JX4      -0.273900
     17 C11         -3.0980    -0.2650     0.0410 cd         1 JX4      -0.033000
     18 C12         -3.8940     0.9490     0.2230 cd         1 JX4      -0.152000
     19 C18          1.3290    -0.3720    -0.9300 ca         1 JX4       0.508800
     20 C19          1.0030     0.8010    -1.6060 ca         1 JX4      -0.238000
     21 C25          7.1990    -0.1730    -0.0440 c5         1 JX4      -0.123400
     22 N06         -0.5730    -3.4610    -0.3170 nd         1 JX4      -0.311600
     23 N09         -0.9940    -1.2700    -0.3910 na         1 JX4       0.130100
     24 N14         -4.4960     2.9900     0.7410 na         1 JX4       0.134800
     25 N16         -5.5470     2.4780     0.1090 nc         1 JX4      -0.528800
     26 N23          4.7930    -0.1660    -0.3960 nu         1 JX4      -0.952100
     27 N27          6.3240     1.0640     1.8580 n7         1 JX4      -0.831400
     28 N29          2.5730    -0.6510    -0.5400 nb         1 JX4      -0.766000
     29 O02         -4.9740    -1.5930     0.4770 os         1 JX4      -0.326100
     30 H1          -1.2950     0.7960    -0.3800 h4         1 JX4       0.151000
     31 H2          -2.5610     2.3660     1.3380 h4         1 JX4       0.154000
     32 H3          -4.8200     5.0310     0.4760 h1         1 JX4       0.057033
     33 H4          -5.2740     4.4040     2.0720 h1         1 JX4       0.057033
     34 H5          -3.5660     4.6010     1.6470 h1         1 JX4       0.057033
     35 H6          -5.8910     0.6130    -0.7480 h4         1 JX4       0.046100
     36 H7           1.8110     2.6370    -2.3640 ha         1 JX4       0.113000
     37 H8           4.1070     2.1560    -1.6170 ha         1 JX4       0.122000
     38 H9           6.0980     1.0620    -1.4700 h1         1 JX4       0.069700
     39 H10          7.0930    -0.8880     2.0430 h1         1 JX4       0.053200
     40 H11          8.3060     0.3470     1.7580 h1         1 JX4       0.053200
     41 H12          6.7650     2.4840     0.3770 h1         1 JX4       0.064200
     42 H13          5.0450     2.2840     0.7100 h1         1 JX4       0.064200
     43 H14         -5.5250    -3.4720    -0.2370 h1         1 JX4       0.046367
     44 H15         -5.1920    -3.3890     1.5080 h1         1 JX4       0.046367
     45 H16         -6.6560    -2.6370     0.8460 h1         1 JX4       0.046367
     46 H17         -3.2560    -3.6890     0.2240 ha         1 JX4       0.148000
     47 H18          1.5080    -3.2870    -0.7230 h4         1 JX4       0.234000
     48 H19          0.0090     0.9910    -1.9830 ha         1 JX4       0.124000
     49 H20          7.1070    -1.2200    -0.3340 hc         1 JX4       0.060200
     50 H21          8.0860     0.2200    -0.5400 hc         1 JX4       0.060200
     51 H22          4.8470    -1.0620     0.0600 hn         1 JX4       0.502000
     52 H23          5.4860     0.6150     2.2060 hn         1 JX4       0.407000
@<TRIPOS>BOND
     1     1    17 2   
     2     1    23 1   
     3     1    30 1   
     4     2    18 2   
     5     2    24 1   
     6     2    31 1   
     7     3    24 1   
     8     3    32 1   
     9     3    33 1   
    10     3    34 1   
    11     4    18 1   
    12     4    25 2   
    13     4    35 1   
    14     5     6 ar  
    15     5    20 ar  
    16     5    36 1   
    17     6     7 ar  
    18     6    37 1   
    19     7    26 1   
    20     7    28 ar  
    21     8    10 1   
    22     8    21 1   
    23     8    26 1   
    24     8    38 1   
    25     9    21 1   
    26     9    27 1   
    27     9    39 1   
    28     9    40 1   
    29    10    27 1   
    30    10    41 1   
    31    10    42 1   
    32    11    29 1   
    33    11    43 1   
    34    11    44 1   
    35    11    45 1   
    36    12    13 2   
    37    12    17 1   
    38    12    29 1   
    39    13    14 1   
    40    13    46 1   
    41    14    22 2   
    42    14    23 1   
    43    15    16 2   
    44    15    22 1   
    45    15    47 1   
    46    16    19 1   
    47    16    23 1   
    48    17    18 1   
    49    19    20 ar  
    50    19    28 ar  
    51    20    48 1   
    52    21    49 1   
    53    21    50 1   
    54    24    25 1   
    55    26    51 1   
    56    27    52 1   
@<TRIPOS>SUBSTRUCTURE
     1 JX4         1 TEMP              0 ****  ****    0 ROOT
