@<TRIPOS>MOLECULE
JX5
   56    56     1     0     0
SMALL
No Charge or Current Charge


@<TRIPOS>ATOM
      1 O1          24.5030    49.2940    43.2560 o          1 JX5      -0.691100
      2 C1          23.6350    48.8670    44.0090 c          1 JX5       0.597700
      3 N1          22.5100    48.2400    43.5180 ns         1 JX5      -0.469900
      4 C2          22.2860    47.9250    42.1010 c3         1 JX5       0.090000
      5 C3          23.0190    46.6360    41.6450 c3         1 JX5      -0.072400
      6 C4          22.2910    45.3110    41.9950 c3         1 JX5      -0.162400
      7 C5          21.9730    45.1870    43.4870 c          1 JX5       0.599100
      8 O2          22.8160    44.8520    44.3100 o          1 JX5      -0.724100
      9 N2          20.6760    45.4830    43.8310 ns         1 JX5      -0.450900
     10 C6          20.1380    45.5250    45.2200 c3         1 JX5      -0.070300
     11 C7          19.1650    44.3470    45.5030 c3         1 JX5       0.118000
     12 N3          17.9790    44.3940    44.6480 ns         1 JX5      -0.513900
     13 C8          17.9620    43.9420    43.3600 c          1 JX5       0.632100
     14 O3          18.7640    43.1390    42.9070 o          1 JX5      -0.684100
     15 N4          16.9970    44.5590    42.6140 ns         1 JX5      -0.456900
     16 C9          17.0820    44.6790    41.1410 c3         1 JX5      -0.047300
     17 C10         15.7690    45.2400    40.5350 c3         1 JX5      -0.036400
     18 C11         15.3770    46.6640    41.0140 c3         1 JX5      -0.204400
     19 C12         14.0780    47.1140    40.3250 c          1 JX5       0.716000
     20 O4          14.1620    47.6890    39.2510 o          1 JX5      -0.773500
     21 O5          13.0150    46.8380    40.8580 o          1 JX5      -0.773500
     22 C13         18.3470    45.5110    40.7160 c          1 JX5       0.717000
     23 O6          18.9230    46.2020    41.5520 o          1 JX5      -0.750000
     24 O7          18.7640    45.3690    39.5750 o          1 JX5      -0.750000
     25 C14         19.5430    46.9400    45.5150 c          1 JX5       0.722000
     26 O8          20.1590    47.9090    45.0900 o          1 JX5      -0.728500
     27 O9          18.4960    47.0380    46.1420 o          1 JX5      -0.728500
     28 C15         23.7640    48.9760    45.5120 ca         1 JX5      -0.092600
     29 C16         23.1060    48.0770    46.3840 ca         1 JX5      -0.060000
     30 C17         23.2520    48.1970    47.7770 ca         1 JX5      -0.103000
     31 C18         24.0630    49.2080    48.3140 ca         1 JX5       0.210000
     32 I1          24.2870    49.3880    50.4630 i          1 JX5      -0.399000
     33 C19         24.7380    50.0930    47.4620 ca         1 JX5      -0.103000
     34 C20         24.5950    49.9750    46.0680 ca         1 JX5      -0.060000
     35 H1          21.7610    48.0400    44.1860 hn         1 JX5       0.410500
     36 H2          22.6470    48.7700    41.4980 h1         1 JX5       0.065200
     37 H3          21.2080    47.8290    41.9150 h1         1 JX5       0.065200
     38 H4          24.0340    46.6220    42.0630 hc         1 JX5       0.027700
     39 H5          23.1370    46.6760    40.5560 hc         1 JX5       0.027700
     40 H6          21.3650    45.2750    41.4120 hc         1 JX5       0.067700
     41 H7          22.9390    44.4770    41.7010 hc         1 JX5       0.067700
     42 H8          20.0530    45.7360    43.0590 hn         1 JX5       0.391500
     43 H9          20.9770    45.4130    45.9180 h1         1 JX5       0.040700
     44 H10         18.8400    44.3820    46.5510 h1         1 JX5       0.033200
     45 H11         19.6860    43.3940    45.3490 h1         1 JX5       0.033200
     46 H12         17.2580    45.0540    44.9050 hn         1 JX5       0.312500
     47 H13         16.3960    45.2100    43.0990 hn         1 JX5       0.288500
     48 H14         17.2240    43.6680    40.7390 h1         1 JX5       0.040700
     49 H15         14.9510    44.5480    40.7720 hc         1 JX5       0.028200
     50 H16         15.8610    45.2440    39.4420 hc         1 JX5       0.028200
     51 H17         16.2050    47.3220    40.7250 hc         1 JX5       0.032700
     52 H18         15.2230    46.5960    42.0970 hc         1 JX5       0.032700
     53 H22         22.5060    47.2620    45.9910 ha         1 JX5       0.142000
     54 H23         22.7450    47.5020    48.4400 ha         1 JX5       0.112000
     55 H24         25.3720    50.8700    47.8810 ha         1 JX5       0.112000
     56 H25         25.1250    50.6690    45.4190 ha         1 JX5       0.142000
@<TRIPOS>BOND
     1     1     2 2   
     2     2     3 1   
     3     2    28 1   
     4     3     4 1   
     5     3    35 1   
     6     4     5 1   
     7     4    36 1   
     8     4    37 1   
     9     5     6 1   
    10     5    38 1   
    11     5    39 1   
    12     6     7 1   
    13     6    40 1   
    14     6    41 1   
    15     7     8 2   
    16     7     9 1   
    17     9    10 1   
    18     9    42 1   
    19    10    11 1   
    20    10    25 1   
    21    10    43 1   
    22    11    12 1   
    23    11    44 1   
    24    11    45 1   
    25    12    13 1   
    26    12    46 1   
    27    13    14 2   
    28    13    15 1   
    29    15    16 1   
    30    15    47 1   
    31    16    17 1   
    32    16    22 1   
    33    16    48 1   
    34    17    18 1   
    35    17    49 1   
    36    17    50 1   
    37    18    19 1   
    38    18    51 1   
    39    18    52 1   
    40    19    20 1   
    41    19    21 1   
    42    22    23 1   
    43    22    24 1   
    44    25    26 1   
    45    25    27 1   
    46    28    29 ar  
    47    28    34 ar  
    48    29    30 ar  
    49    29    53 1   
    50    30    31 ar  
    51    30    54 1   
    52    31    32 1   
    53    31    33 ar  
    54    33    34 ar  
    55    33    55 1   
    56    34    56 1   
@<TRIPOS>SUBSTRUCTURE
     1 JX5         1 TEMP              0 ****  ****    0 ROOT
