@<TRIPOS>MOLECULE
JX5
   56    56     1     0     0
SMALL
bcc


@<TRIPOS>ATOM
      1 O1          24.6110    49.0400    43.2850 o          1 JX5      -0.691100
      2 C1          23.6410    48.6680    43.9380 c          1 JX5       0.664700
      3 N1          22.5680    48.0650    43.4190 ns         1 JX5      -0.536900
      4 C2          22.4910    47.7410    42.0110 c3         1 JX5       0.090000
      5 C3          23.1780    46.4250    41.6430 c3         1 JX5      -0.072400
      6 C4          22.3560    45.1800    41.9820 c3         1 JX5      -0.162400
      7 C5          22.0570    45.0660    43.4620 c          1 JX5       0.666100
      8 O2          22.9290    44.7420    44.2650 o          1 JX5      -0.724100
      9 N2          20.7980    45.3640    43.8050 ns         1 JX5      -0.517900
     10 C6          20.3150    45.3980    45.1630 c3         1 JX5      -0.070300
     11 C7          19.3170    44.2670    45.4370 c3         1 JX5       0.118000
     12 N3          18.0670    44.4390    44.7300 ns         1 JX5      -0.580900
     13 C8          17.9140    44.0380    43.4320 c          1 JX5       0.766100
     14 O3          18.5740    43.1350    42.9320 o          1 JX5      -0.684100
     15 N4          16.9080    44.6730    42.7540 ns         1 JX5      -0.523900
     16 C9          17.0050    44.7510    41.3100 c3         1 JX5      -0.047300
     17 C10         15.7320    45.3690    40.7260 c3         1 JX5      -0.036400
     18 C11         15.4960    46.8280    41.0910 c3         1 JX5      -0.204400
     19 C12         14.2260    47.4680    40.4890 c          1 JX5       0.926600
     20 O4          14.0460    48.6720    40.7670 o          1 JX5      -0.878800
     21 O5          13.4900    46.7490    39.7850 o          1 JX5      -0.878800
     22 C13         18.2680    45.5150    40.8290 c          1 JX5       0.927600
     23 O6          18.9210    46.1560    41.6870 o          1 JX5      -0.855300
     24 O7          18.5120    45.4390    39.6140 o          1 JX5      -0.855300
     25 C14         19.7380    46.7950    45.5190 c          1 JX5       0.932600
     26 O8          20.2170    47.7810    44.9140 o          1 JX5      -0.833800
     27 O9          18.8650    46.8260    46.4010 o          1 JX5      -0.833800
     28 C15         23.5960    48.8970    45.4180 ca         1 JX5      -0.092600
     29 C16         23.1780    47.9080    46.3010 ca         1 JX5      -0.078000
     30 C17         23.1810    48.1330    47.6700 ca         1 JX5      -0.121000
     31 C18         23.5950    49.3650    48.1510 ca         1 JX5       0.072900
     32 I1          23.5870    49.7250    50.2230 i          1 JX5      -0.261900
     33 C19         24.0250    50.3640    47.2880 ca         1 JX5      -0.121000
     34 C20         24.0370    50.1160    45.9240 ca         1 JX5      -0.078000
     35 H1          21.7400    47.8820    44.0050 hn         1 JX5       0.410500
     36 H2          22.9290    48.5540    41.4300 h1         1 JX5       0.065200
     37 H3          21.4350    47.6940    41.7390 h1         1 JX5       0.065200
     38 H4          24.1590    46.3770    42.1210 hc         1 JX5       0.027700
     39 H5          23.3610    46.4220    40.5660 hc         1 JX5       0.027700
     40 H6          21.4350    45.1940    41.3970 hc         1 JX5       0.067700
     41 H7          22.9140    44.2910    41.6810 hc         1 JX5       0.067700
     42 H8          20.1460    45.6360    43.0680 hn         1 JX5       0.391500
     43 H9          21.1750    45.2340    45.8200 h1         1 JX5       0.040700
     44 H10         19.1090    44.2210    46.5050 h1         1 JX5       0.033200
     45 H11         19.7570    43.3110    45.1570 h1         1 JX5       0.033200
     46 H12         17.5610    45.2630    45.0210 hn         1 JX5       0.312500
     47 H13         16.5910    45.5300    43.1830 hn         1 JX5       0.288500
     48 H14         17.0730    43.7300    40.9260 h1         1 JX5       0.040700
     49 H15         14.8770    44.7660    41.0440 hc         1 JX5       0.028200
     50 H16         15.7830    45.2730    39.6410 hc         1 JX5       0.028200
     51 H17         16.3520    47.4380    40.7820 hc         1 JX5       0.032700
     52 H18         15.4380    46.9560    42.1780 hc         1 JX5       0.032700
     53 H22         22.8790    46.9350    45.9330 ha         1 JX5       0.160000
     54 H23         22.8650    47.3460    48.3420 ha         1 JX5       0.130000
     55 H24         24.3520    51.3250    47.6610 ha         1 JX5       0.130000
     56 H25         24.3800    50.8910    45.2510 ha         1 JX5       0.160000
@<TRIPOS>BOND
     1     1     2 2   
     2     2     3 1   
     3     2    28 1   
     4     3     4 1   
     5     3    35 1   
     6     4     5 1   
     7     4    36 1   
     8     4    37 1   
     9     5     6 1   
    10     5    38 1   
    11     5    39 1   
    12     6     7 1   
    13     6    40 1   
    14     6    41 1   
    15     7     8 2   
    16     7     9 1   
    17     9    10 1   
    18     9    42 1   
    19    10    11 1   
    20    10    25 1   
    21    10    43 1   
    22    11    12 1   
    23    11    44 1   
    24    11    45 1   
    25    12    13 1   
    26    12    46 1   
    27    13    14 2   
    28    13    15 1   
    29    15    16 1   
    30    15    47 1   
    31    16    17 1   
    32    16    22 1   
    33    16    48 1   
    34    17    18 1   
    35    17    49 1   
    36    17    50 1   
    37    18    19 1   
    38    18    51 1   
    39    18    52 1   
    40    19    20 1   
    41    19    21 1   
    42    22    23 1   
    43    22    24 1   
    44    25    26 1   
    45    25    27 1   
    46    28    29 ar  
    47    28    34 ar  
    48    29    30 ar  
    49    29    53 1   
    50    30    31 ar  
    51    30    54 1   
    52    31    32 1   
    53    31    33 ar  
    54    33    34 ar  
    55    33    55 1   
    56    34    56 1   
@<TRIPOS>SUBSTRUCTURE
     1 JX5         1 TEMP              0 ****  ****    0 ROOT
