@<TRIPOS>MOLECULE
JX8
   23    25     1     0     0
SMALL
abcg2


@<TRIPOS>ATOM
      1 N1         -10.6530    74.6900   122.2090 nc         1 JX8      -0.043000
      2 N3          -9.6540    74.3040   120.4300 na         1 JX8      -0.215700
      3 C4         -10.6380    76.0560   118.9420 ca         1 JX8      -0.190500
      4 C5         -10.4940    75.3170   120.1910 cd         1 JX8       0.464000
      5 C6         -10.8540    74.0090   117.5120 ca         1 JX8      -0.094000
      6 C7         -10.9770    73.4830   116.2580 ca         1 JX8      -0.137000
      7 C8         -11.0200    74.3580   115.1570 ca         1 JX8       0.336900
      8 N          -11.1280    75.5570   121.3180 nc         1 JX8      -0.384000
      9 C          -10.7580    78.2110   117.8410 ca         1 JX8      -0.243000
     10 C1         -10.8490    77.6180   116.6050 ca         1 JX8       0.204100
     11 C2         -10.8580    76.1940   116.5030 ca         1 JX8       0.236000
     12 C3         -10.7680    75.4100   117.6810 ca         1 JX8      -0.023000
     13 C9         -10.6530    77.4290   118.9970 ca         1 JX8       0.006000
     14 N2          -9.7710    73.9310   121.6920 nd         1 JX8      -0.204800
     15 N4         -10.9730    75.6570   115.2720 nb         1 JX8      -0.621000
     16 H1          -8.9660    73.8730   119.8280 hn         1 JX8       0.388000
     17 H2         -10.8450    73.3450   118.3650 ha         1 JX8       0.121000
     18 H3         -11.0480    72.4150   116.1060 ha         1 JX8       0.129000
     19 H4         -11.1070    73.9570   114.1530 h4         1 JX8       0.027100
     20 H          -10.7550    79.2910   117.9310 ha         1 JX8       0.127000
     21 H5         -10.9290    79.2470   115.6370 ho         1 JX8       0.468000
     22 H6         -10.5600    77.9290   119.9520 ha         1 JX8       0.136000
     23 O          -10.9400    78.2980   115.4620 oh         1 JX8      -0.487100
@<TRIPOS>BOND
     1     1     8 1   
     2     1    14 2   
     3     2     4 1   
     4     2    14 1   
     5     2    16 1   
     6     3     4 1   
     7     3    12 ar  
     8     3    13 ar  
     9     4     8 2   
    10     5     6 ar  
    11     5    12 ar  
    12     5    17 1   
    13     6     7 ar  
    14     6    18 1   
    15     7    15 ar  
    16     7    19 1   
    17     9    10 ar  
    18     9    13 ar  
    19     9    20 1   
    20    10    11 ar  
    21    10    23 1   
    22    11    12 ar  
    23    11    15 ar  
    24    13    22 1   
    25    21    23 1   
@<TRIPOS>SUBSTRUCTURE
     1 JX8         1 TEMP              0 ****  ****    0 ROOT
