@<TRIPOS>MOLECULE
JX8
   23    25     1     0     0
SMALL
No Charge or Current Charge


@<TRIPOS>ATOM
      1 N1         -10.6230    74.7520   122.2560 nc         1 JX8      -0.043000
      2 N3          -9.6630    74.2400   120.4470 na         1 JX8      -0.215700
      3 C4         -10.6260    76.0460   118.9160 ca         1 JX8      -0.190500
      4 C5         -10.4890    75.2980   120.1840 cd         1 JX8       0.464000
      5 C6         -10.8430    74.0090   117.5200 ca         1 JX8      -0.094000
      6 C7         -10.9640    73.4410   116.2440 ca         1 JX8      -0.137000
      7 C8         -11.0150    74.2790   115.1250 ca         1 JX8       0.336900
      8 N          -11.0690    75.6500   121.3150 nc         1 JX8      -0.384000
      9 C          -10.7710    78.2320   117.8350 ca         1 JX8      -0.243000
     10 C1         -10.8520    77.6230   116.5760 ca         1 JX8       0.204100
     11 C2         -10.8600    76.2030   116.4530 ca         1 JX8       0.236000
     12 C3         -10.7650    75.4170   117.6440 ca         1 JX8      -0.023000
     13 C9         -10.6690    77.4520   118.9930 ca         1 JX8       0.006000
     14 N2          -9.7690    73.9000   121.7590 nd         1 JX8      -0.204800
     15 N4         -10.9720    75.6240   115.2230 nb         1 JX8      -0.621000
     16 H1          -9.0380    73.7720   119.8030 hn         1 JX8       0.388000
     17 H2         -10.8380    73.3460   118.3780 ha         1 JX8       0.121000
     18 H3         -11.0230    72.3630   116.1170 ha         1 JX8       0.129000
     19 H4         -11.1070    73.8650   114.1220 h4         1 JX8       0.027100
     20 H          -10.7800    79.3150   117.9260 ha         1 JX8       0.127000
     21 H5         -10.9260    79.3660   115.7740 ho         1 JX8       0.468000
     22 H6         -10.5920    77.9520   119.9590 ha         1 JX8       0.136000
     23 O          -10.9420    78.4340   115.4730 oh         1 JX8      -0.487100
@<TRIPOS>BOND
     1     1     8 1   
     2     1    14 2   
     3     2     4 1   
     4     2    14 1   
     5     2    16 1   
     6     3     4 1   
     7     3    12 ar  
     8     3    13 ar  
     9     4     8 2   
    10     5     6 ar  
    11     5    12 ar  
    12     5    17 1   
    13     6     7 ar  
    14     6    18 1   
    15     7    15 ar  
    16     7    19 1   
    17     9    10 ar  
    18     9    13 ar  
    19     9    20 1   
    20    10    11 ar  
    21    10    23 1   
    22    11    12 ar  
    23    11    15 ar  
    24    13    22 1   
    25    21    23 1   
@<TRIPOS>SUBSTRUCTURE
     1 JX8         1 TEMP              0 ****  ****    0 ROOT
