@<TRIPOS>MOLECULE
JX9
   34    36     1     0     0
SMALL
No Charge or Current Charge


@<TRIPOS>ATOM
      1 C10         50.4790   -26.0200    12.3400 c6         1 JX9       0.234500
      2 C13         51.1470   -26.6520    13.5940 c6         1 JX9      -0.086900
      3 C15         50.3340   -27.8690    14.1040 c6         1 JX9      -0.072900
      4 C17         48.8650   -27.4750    14.4000 c6         1 JX9      -0.077400
      5 C1          52.6670   -24.2140     9.8610 ca         1 JX9      -0.256200
      6 C2          51.4800   -24.7330    10.4160 ca         1 JX9       0.427900
      7 C3          52.8090   -24.1110     8.5030 ca         1 JX9       0.252000
      8 N4          53.8240   -23.7820    10.4670 na         1 JX9      -0.293600
      9 N5          51.2670   -24.8650    11.8090 nh         1 JX9      -0.782300
     10 N6          50.4920   -25.1370     9.5890 nb         1 JX9      -0.287000
     11 N7          54.0550   -23.5890     8.1910 nc         1 JX9      -0.643700
     12 N8          51.8230   -24.4990     7.6730 nb         1 JX9      -0.156000
     13 C9          54.6360   -23.4030     9.3950 cd         1 JX9       0.426700
     14 C11         51.6640   -23.7810    12.7400 c3         1 JX9       0.206100
     15 C12         50.7110   -24.9960     8.2610 ca         1 JX9       0.152900
     16 C14         49.0080   -25.6180    12.6470 c6         1 JX9      -0.086900
     17 C16         48.1940   -26.8330    13.1610 c6         1 JX9      -0.072900
     18 H1          50.4480   -26.8150    11.5780 h1         1 JX9       0.099700
     19 H2          52.1710   -26.9670    13.3510 hc         1 JX9       0.044200
     20 H3          51.2280   -25.9130    14.4030 hc         1 JX9       0.044200
     21 H4          50.3590   -28.6720    13.3540 hc         1 JX9       0.044200
     22 H5          50.8010   -28.2760    15.0120 hc         1 JX9       0.044200
     23 H6          48.2980   -28.3620    14.7130 hc         1 JX9       0.040200
     24 H7          48.8340   -26.7720    15.2440 hc         1 JX9       0.040200
     25 H8          54.0660   -23.7660    11.4500 hn         1 JX9       0.357000
     26 H10         55.6330   -23.0130     9.5620 h5         1 JX9       0.064800
     27 H11         50.9170   -23.6440    13.5330 h1         1 JX9       0.038700
     28 H12         52.6300   -24.0120    13.2090 h1         1 JX9       0.038700
     29 H13         51.7520   -22.8260    12.2060 h1         1 JX9       0.038700
     30 H14         49.9110   -25.3170     7.5970 h5         1 JX9       0.047100
     31 H15         48.9780   -24.8180    13.3980 hc         1 JX9       0.044200
     32 H16         48.5320   -25.2150    11.7430 hc         1 JX9       0.044200
     33 H17         47.1720   -26.5170    13.4120 hc         1 JX9       0.044200
     34 H18         48.1000   -27.5810    12.3610 hc         1 JX9       0.044200
@<TRIPOS>BOND
     1     1     2 1   
     2     1     9 1   
     3     1    16 1   
     4     1    18 1   
     5     2     3 1   
     6     2    19 1   
     7     2    20 1   
     8     3     4 1   
     9     3    21 1   
    10     3    22 1   
    11     4    17 1   
    12     4    23 1   
    13     4    24 1   
    14     5     6 ar  
    15     5     7 ar  
    16     5     8 1   
    17     6     9 1   
    18     6    10 ar  
    19     7    11 1   
    20     7    12 ar  
    21     8    13 1   
    22     8    25 1   
    23     9    14 1   
    24    10    15 ar  
    25    11    13 2   
    26    12    15 ar  
    27    13    26 1   
    28    14    27 1   
    29    14    28 1   
    30    14    29 1   
    31    15    30 1   
    32    16    17 1   
    33    16    31 1   
    34    16    32 1   
    35    17    33 1   
    36    17    34 1   
@<TRIPOS>SUBSTRUCTURE
     1 JX9         1 TEMP              0 ****  ****    0 ROOT
