@<TRIPOS>MOLECULE
JX9
   34    36     1     0     0
SMALL
bcc


@<TRIPOS>ATOM
      1 C10         50.4750   -26.0760    12.3670 c6         1 JX9       0.234500
      2 C13         51.0180   -26.9310    13.5120 c6         1 JX9      -0.086900
      3 C15         49.9700   -27.9510    13.9500 c6         1 JX9      -0.072900
      4 C17         48.6630   -27.2720    14.3460 c6         1 JX9      -0.077400
      5 C1          52.6420   -24.1460     9.9450 ca         1 JX9      -0.386800
      6 C2          51.6940   -25.0130    10.5360 ca         1 JX9       0.756200
      7 C3          52.7500   -24.1260     8.5500 ca         1 JX9       0.580300
      8 N4          53.5860   -23.2410    10.3710 na         1 JX9      -0.243300
      9 N5          51.4670   -25.1270    11.8600 nh         1 JX9      -0.782300
     10 N6          50.9840   -25.7640     9.6890 nb         1 JX9      -0.813000
     11 N7          53.7080   -23.2420     8.1550 nc         1 JX9      -0.643700
     12 N8          52.0140   -24.8880     7.7310 nb         1 JX9      -0.682000
     13 C9          54.1770   -22.7440     9.2700 cd         1 JX9       0.426700
     14 C11         52.0700   -24.1980    12.7930 c3         1 JX9       0.206100
     15 C12         51.1770   -25.6690     8.3770 ca         1 JX9       0.678900
     16 C14         49.1730   -25.3790    12.7580 c6         1 JX9      -0.086900
     17 C16         48.1320   -26.3970    13.2150 c6         1 JX9      -0.072900
     18 H1          50.2540   -26.7490    11.5400 h1         1 JX9       0.099700
     19 H2          51.9320   -27.4360    13.1900 hc         1 JX9       0.044200
     20 H3          51.2850   -26.3090    14.3730 hc         1 JX9       0.044200
     21 H4          49.7820   -28.6540    13.1310 hc         1 JX9       0.044200
     22 H5          50.3590   -28.5420    14.7820 hc         1 JX9       0.044200
     23 H6          47.9180   -28.0210    14.6240 hc         1 JX9       0.040200
     24 H7          48.8320   -26.6540    15.2340 hc         1 JX9       0.040200
     25 H8          53.8240   -22.9830    11.3140 hn         1 JX9       0.306700
     26 H10         54.9610   -22.0050     9.3440 h5         1 JX9       0.064800
     27 H11         51.6010   -24.3020    13.7660 h1         1 JX9       0.038700
     28 H12         53.1380   -24.3840    12.9340 h1         1 JX9       0.038700
     29 H13         51.9170   -23.1610    12.4880 h1         1 JX9       0.038700
     30 H14         50.5550   -26.3200     7.7720 h5         1 JX9       0.047100
     31 H15         49.3580   -24.6600    13.5630 hc         1 JX9       0.044200
     32 H16         48.7960   -24.8100    11.9040 hc         1 JX9       0.044200
     33 H17         47.2220   -25.8800    13.5270 hc         1 JX9       0.044200
     34 H18         47.8510   -27.0310    12.3670 hc         1 JX9       0.044200
@<TRIPOS>BOND
     1     1     2 1   
     2     1     9 1   
     3     1    16 1   
     4     1    18 1   
     5     2     3 1   
     6     2    19 1   
     7     2    20 1   
     8     3     4 1   
     9     3    21 1   
    10     3    22 1   
    11     4    17 1   
    12     4    23 1   
    13     4    24 1   
    14     5     6 ar  
    15     5     7 ar  
    16     5     8 1   
    17     6     9 1   
    18     6    10 ar  
    19     7    11 1   
    20     7    12 ar  
    21     8    13 1   
    22     8    25 1   
    23     9    14 1   
    24    10    15 ar  
    25    11    13 2   
    26    12    15 ar  
    27    13    26 1   
    28    14    27 1   
    29    14    28 1   
    30    14    29 1   
    31    15    30 1   
    32    16    17 1   
    33    16    31 1   
    34    16    32 1   
    35    17    33 1   
    36    17    34 1   
@<TRIPOS>SUBSTRUCTURE
     1 JX9         1 TEMP              0 ****  ****    0 ROOT
