@<TRIPOS>MOLECULE
JXB
   29    30     1     0     0
SMALL
No Charge or Current Charge


@<TRIPOS>ATOM
      1 N            6.8710     0.0870    -0.0800 n1         1 JXB      -0.078000
      2 C            4.0090    -1.4320     0.6780 c3         1 JXB       0.158800
      3 C1           3.0120    -1.0690    -0.4440 c3         1 JXB      -0.096400
      4 C2           1.5900    -0.7740     0.0840 c3         1 JXB      -0.097400
      5 C3           0.5960    -0.4120    -1.0380 c3         1 JXB       0.082600
      6 C4          -1.2750     1.0890    -0.0630 cc         1 JXB       0.347800
      7 C5          -2.8080    -0.4130     0.1160 ca         1 JXB      -0.107600
      8 C6          -3.9830    -1.1530     0.3550 ca         1 JXB       0.458900
      9 C7          -2.9210    -3.0240    -0.4280 ca         1 JXB       0.190900
     10 C8          -1.7240    -1.0770    -0.4080 ca         1 JXB       0.135500
     11 N1           6.1390    -0.7680     0.0850 n1         1 JXB       0.228000
     12 N2           5.3340    -1.7140     0.1100 n2         1 JXB      -0.434200
     13 N3          -0.7550    -0.1220    -0.5250 na         1 JXB      -0.266300
     14 N4          -2.5490     0.9460     0.3420 nd         1 JXB      -0.512100
     15 N6          -4.0450    -2.4670     0.0860 nb         1 JXB      -0.303000
     16 N7          -1.7520    -2.3940    -0.6920 nb         1 JXB      -0.223000
     17 Br          -0.2950     2.7030    -0.0080 br         1 JXB       0.016700
     18 H2           4.0520    -0.6070     1.4040 h1         1 JXB       0.062700
     19 H3           3.6350    -2.3150     1.2130 h1         1 JXB       0.062700
     20 H4           3.3830    -0.1900    -0.9870 hc         1 JXB       0.050700
     21 H5           2.9650    -1.8950    -1.1640 hc         1 JXB       0.050700
     22 H6           1.2140    -1.6520     0.6250 hc         1 JXB       0.058200
     23 H7           1.6350     0.0520     0.8050 hc         1 JXB       0.058200
     24 H8           0.9640     0.4670    -1.5840 h1         1 JXB       0.074700
     25 H9           0.5360    -1.2410    -1.7560 h1         1 JXB       0.074700
     26 H10         -2.9620    -4.0890    -0.6500 h5         1 JXB       0.049100
     27 H11         -5.7980    -1.2140     1.2900 hn         1 JXB       0.509500
     28 H12         -5.0170     0.3290     1.2900 hn         1 JXB       0.509500
     29 N5          -5.1090    -0.5950     0.8740 nv         1 JXB      -1.059900
@<TRIPOS>BOND
     1     1    11 3   
     2     2     3 1   
     3     2    12 1   
     4     2    18 1   
     5     2    19 1   
     6     3     4 1   
     7     3    20 1   
     8     3    21 1   
     9     4     5 1   
    10     4    22 1   
    11     4    23 1   
    12     5    13 1   
    13     5    24 1   
    14     5    25 1   
    15     6    13 1   
    16     6    14 2   
    17     6    17 1   
    18     7     8 ar  
    19     7    10 ar  
    20     7    14 1   
    21     8    15 ar  
    22     8    29 1   
    23     9    15 ar  
    24     9    16 ar  
    25     9    26 1   
    26    10    13 1   
    27    10    16 ar  
    28    11    12 1   
    29    27    29 1   
    30    28    29 1   
@<TRIPOS>SUBSTRUCTURE
     1 JXB         1 TEMP              0 ****  ****    0 ROOT
