@<TRIPOS>MOLECULE
JXB
   29    30     1     0     0
SMALL
bcc


@<TRIPOS>ATOM
      1 N            6.6910     0.0740    -0.3250 n1         1 JXB      -0.078000
      2 C            3.9320    -1.4400     0.7050 c3         1 JXB       0.158800
      3 C1           2.9880    -1.0300    -0.4150 c3         1 JXB      -0.096400
      4 C2           1.5790    -0.7900     0.1120 c3         1 JXB      -0.097400
      5 C3           0.6280    -0.4160    -1.0150 c3         1 JXB       0.053300
      6 C4          -1.2440     1.0220    -0.0620 cc         1 JXB       0.347800
      7 C5          -2.7780    -0.3890     0.1660 ca         1 JXB      -0.238200
      8 C6          -3.9420    -1.1400     0.4140 ca         1 JXB       0.787200
      9 C7          -2.8120    -2.9680    -0.4110 ca         1 JXB       0.716900
     10 C8          -1.7060    -1.0740    -0.3810 ca         1 JXB       0.463800
     11 N1           5.9770    -0.7520    -0.0500 n1         1 JXB       0.228000
     12 N2           5.2920    -1.7180     0.2240 n2         1 JXB      -0.434200
     13 N3          -0.7150    -0.1460    -0.5340 na         1 JXB      -0.237000
     14 N4          -2.4650     0.9320     0.3580 nd         1 JXB      -0.512100
     15 N6          -3.9170    -2.4420     0.1090 nb         1 JXB      -0.829000
     16 N7          -1.6670    -2.3670    -0.6890 nb         1 JXB      -0.749000
     17 BR          -0.2680     2.5980    -0.0450 br         1 JXB       0.016700
     18 H2           3.9530    -0.6780     1.4900 h1         1 JXB       0.062700
     19 H3           3.5930    -2.3680     1.1620 h1         1 JXB       0.062700
     20 H4           3.3570    -0.1180    -0.8940 hc         1 JXB       0.050700
     21 H5           2.9750    -1.8100    -1.1810 hc         1 JXB       0.050700
     22 H6           1.2080    -1.6890     0.6100 hc         1 JXB       0.058200
     23 H7           1.5950     0.0050     0.8630 hc         1 JXB       0.058200
     24 H8           0.9850     0.4570    -1.5610 h1         1 JXB       0.074700
     25 H9           0.5490    -1.2290    -1.7360 h1         1 JXB       0.074700
     26 H10         -2.8610    -4.0290    -0.6340 h5         1 JXB       0.049100
     27 H11         -5.8480    -1.1890     1.1210 hn         1 JXB       0.454300
     28 H12         -5.0880     0.3590     1.1980 hn         1 JXB       0.454300
     29 N5          -5.0490    -0.6090     0.9310 nv         1 JXB      -0.949500
@<TRIPOS>BOND
     1     1    11 3   
     2     2     3 1   
     3     2    12 1   
     4     2    18 1   
     5     2    19 1   
     6     3     4 1   
     7     3    20 1   
     8     3    21 1   
     9     4     5 1   
    10     4    22 1   
    11     4    23 1   
    12     5    13 1   
    13     5    24 1   
    14     5    25 1   
    15     6    13 1   
    16     6    14 2   
    17     6    17 1   
    18     7     8 ar  
    19     7    10 ar  
    20     7    14 1   
    21     8    15 ar  
    22     8    29 1   
    23     9    15 ar  
    24     9    16 ar  
    25     9    26 1   
    26    10    13 1   
    27    10    16 ar  
    28    11    12 1   
    29    27    29 1   
    30    28    29 1   
@<TRIPOS>SUBSTRUCTURE
     1 JXB         1 TEMP              0 ****  ****    0 ROOT
