@<TRIPOS>MOLECULE
JXD
  143   144     1     0     0
SMALL
No Charge or Current Charge


@<TRIPOS>ATOM
      1 C10        -10.3360    22.2170    12.1460 c6         1 JXD       0.094300
      2 C12         -8.9640    22.9590    12.1680 c6         1 JXD       0.152300
      3 C14         -8.3300    23.0260    10.7410 c6         1 JXD       0.103700
      4 C02         -8.3450    19.7810     7.2660 c6         1 JXD       0.146300
      5 C03         -7.3350    20.2420     8.3580 c6         1 JXD       0.110300
      6 C05         -8.2310    21.5610    10.2130 c6         1 JXD       0.391300
      7 C07        -10.1480    20.8120    11.4870 c6         1 JXD       0.155300
      8 C08        -11.4910    20.0320    11.3150 c3         1 JXD       0.171600
      9 C19         -5.8920    20.2470     7.7860 c6         1 JXD       0.180300
     10 C23         -6.4320    18.5100     6.1540 c6         1 JXD       0.430300
     11 C31         -8.1760    20.3180     0.4820 c3         1 JXD       0.260800
     12 C32         -7.6010    18.9990     0.0030 c2         1 JXD      -0.209200
     13 C33         -8.2570    17.9820    -0.5910 c2         1 JXD      -0.139400
     14 C34         -9.7470    17.9840    -0.9130 c3         1 JXD      -0.015200
     15 C35        -10.5890    17.2710     0.1670 c3         1 JXD      -0.062200
     16 C36        -12.0710    17.2370    -0.1720 c2         1 JXD      -0.168200
     17 C37        -12.9260    16.2130     0.0140 c2         1 JXD      -0.166400
     18 C38        -12.5620    14.8780     0.6520 c3         1 JXD      -0.035200
     19 C39        -12.1650    13.8040    -0.3800 c3         1 JXD      -0.038200
     20 C40        -11.8030    12.4810     0.2720 c2         1 JXD      -0.195200
     21 C41        -12.6310    11.4730     0.6140 c2         1 JXD      -0.140400
     22 C42        -14.1520    11.4790     0.4310 c3         1 JXD      -0.028200
     23 C43        -14.9560    11.3910     1.7490 c3         1 JXD      -0.032200
     24 C44        -14.5940    12.5010     2.7240 c2         1 JXD      -0.210200
     25 C45        -15.3240    13.5710     3.1090 c2         1 JXD      -0.122400
     26 C46        -14.8400    14.6420     4.0940 c3         1 JXD      -0.031200
     27 C47        -13.3500    14.6040     4.5200 c3         1 JXD      -0.039200
     28 C48        -13.0000    13.4490     5.4490 c2         1 JXD      -0.233200
     29 C49        -11.9980    12.5520     5.3420 c2         1 JXD      -0.091400
     30 C50        -11.7970    11.4570     6.3810 c3         1 JXD      -0.029200
     31 C51        -10.6080    11.7270     7.3280 c3         1 JXD      -0.051200
     32 C52        -10.4540    10.6420     8.3800 c2         1 JXD      -0.189200
     33 C53         -9.7660     9.4890     8.2710 c2         1 JXD      -0.142400
     34 C54         -9.6650     8.4920     9.4100 c3         1 JXD      -0.047400
     35 C55         -9.0160     9.0260     7.0300 c3         1 JXD      -0.047400
     36 C56        -10.9730    12.4820     4.2130 c3         1 JXD      -0.070900
     37 C57        -16.7260    13.8970     2.6100 c3         1 JXD      -0.050900
     38 C58        -12.1020    10.1740     1.2020 c3         1 JXD      -0.049900
     39 C59        -14.3900    16.2920    -0.3880 c3         1 JXD      -0.040900
     40 C60         -7.5560    16.7000    -1.0090 c3         1 JXD      -0.042900
     41 C63         -7.9110    18.4030     6.6770 c6         1 JXD       0.080700
     42 N15         -9.1120    23.8890     9.8130 ns         1 JXD      -0.486900
     43 N64         -8.8630    17.9280     5.6560 ns         1 JXD      -0.486900
     44 O01         -9.6860    19.7260     7.7950 oh         1 JXD      -0.723000
     45 O04         -7.6940    21.5450     8.8800 os         1 JXD      -0.437000
     46 O06         -9.5440    20.9690    10.1770 os         1 JXD      -0.469000
     47 O09        -11.3210    18.7550    10.6730 oh         1 JXD      -0.689000
     48 O11        -10.8600    22.1280    13.4920 oh         1 JXD      -0.735000
     49 O13         -9.1420    24.2600    12.7480 oh         1 JXD      -0.650000
     50 O22         -5.5730    18.9420     7.2320 os         1 JXD      -0.462000
     51 O24         -6.2540    19.4380     5.0730 os         1 JXD      -0.635400
     52 O29         -9.6420    20.0600     4.0480 o          1 JXD      -0.842500
     53 O30         -9.0420    20.0640     1.5880 os         1 JXD      -0.600400
     54 O61         -7.7460    21.4460     3.3120 o          1 JXD      -0.842500
     55 P25         -6.1690    18.8840     3.5640 p5         1 JXD       1.481800
     56 P28         -8.4970    20.1760     3.0980 p5         1 JXD       1.468800
     57 H101       -11.0290    22.7960    11.5150 h1         1 JXD       0.058700
     58 H121        -8.2820    22.3750    12.8040 h1         1 JXD       0.040700
     59 H141        -7.3060    23.4140    10.8270 h1         1 JXD       0.077700
     60 H201        -5.0440    21.5930     9.2760 h1         1 JXD       0.021200
     61 H202        -3.8460    20.6730     8.3640 h1         1 JXD       0.021200
     62 H021        -8.3020    20.5220     6.4510 h1         1 JXD       0.104700
     63 H031        -7.3600    19.5080     9.1780 h1         1 JXD       0.050700
     64 H051        -7.5770    20.9770    10.8780 h2         1 JXD       0.031700
     65 H071        -9.4790    20.2030    12.1130 h1         1 JXD       0.057700
     66 H082       -11.9410    19.8880    12.3060 h1         1 JXD       0.017700
     67 H081       -12.1780    20.6560    10.7280 h1         1 JXD       0.017700
     68 H172        -7.6880    26.9970     9.8320 hc         1 JXD       0.055033
     69 H173        -7.5680    25.7850    11.1690 hc         1 JXD       0.055033
     70 H171        -6.8550    25.3990     9.6650 hc         1 JXD       0.055033
     71 H191        -5.8220    21.0060     6.9920 h1         1 JXD       0.100700
     72 H231        -6.1090    17.5010     5.8540 h2         1 JXD       0.104700
     73 H312        -7.3590    20.9980     0.7580 h1         1 JXD       0.016700
     74 H311        -8.7340    20.7950    -0.3340 h1         1 JXD       0.016700
     75 H321        -6.5320    18.9160     0.2000 ha         1 JXD       0.207000
     76 H342       -10.1150    19.0130    -1.0090 hc         1 JXD       0.017700
     77 H341        -9.9270    17.5130    -1.8870 hc         1 JXD       0.017700
     78 H351       -10.1920    16.2610     0.3090 hc         1 JXD       0.084200
     79 H352       -10.4470    17.7950     1.1180 hc         1 JXD       0.084200
     80 H361       -12.4340    18.1610    -0.6250 ha         1 JXD       0.152000
     81 H381       -13.4020    14.5070     1.2480 hc         1 JXD       0.054200
     82 H382       -11.7360    15.0000     1.3620 hc         1 JXD       0.054200
     83 H391       -11.3110    14.1710    -0.9640 hc         1 JXD       0.039200
     84 H392       -12.9790    13.6730    -1.1010 hc         1 JXD       0.039200
     85 H401       -10.7300    12.3720     0.4390 ha         1 JXD       0.178000
     86 H422       -14.4470    10.6410    -0.2130 hc         1 JXD       0.035200
     87 H421       -14.4850    12.3810    -0.0930 hc         1 JXD       0.035200
     88 H431       -16.0220    11.3870     1.5040 hc         1 JXD       0.031700
     89 H432       -14.7720    10.4200     2.2220 hc         1 JXD       0.031700
     90 H441       -13.5960    12.3550     3.1260 ha         1 JXD       0.194000
     91 H461       -15.0090    15.6290     3.6450 hc         1 JXD       0.035200
     92 H462       -15.4630    14.6180     4.9970 hc         1 JXD       0.035200
     93 H471       -13.1340    15.5420     5.0470 hc         1 JXD       0.060700
     94 H472       -12.7270    14.6300     3.6220 hc         1 JXD       0.060700
     95 H481       -13.6710    13.3870     6.3070 ha         1 JXD       0.148000
     96 H502       -11.6600    10.4850     5.8890 hc         1 JXD       0.027200
     97 H501       -12.7000    11.3540     6.9950 hc         1 JXD       0.027200
     98 H512       -10.7550    12.6980     7.8170 hc         1 JXD       0.075700
     99 H511        -9.6860    11.8280     6.7440 hc         1 JXD       0.075700
    100 H521       -10.9620    10.8780     9.3160 ha         1 JXD       0.151000
    101 H543       -10.2060     8.8340    10.3000 hc         1 JXD       0.031367
    102 H541       -10.0860     7.5210     9.1240 hc         1 JXD       0.031367
    103 H542        -8.6200     8.3310     9.7030 hc         1 JXD       0.031367
    104 H553        -9.1290     9.7090     6.1820 hc         1 JXD       0.031367
    105 H551        -7.9430     8.9320     7.2330 hc         1 JXD       0.031367
    106 H552        -9.3780     8.0450     6.6990 hc         1 JXD       0.031367
    107 H561       -11.1970    13.1520     3.3780 hc         1 JXD       0.053033
    108 H563        -9.9700    12.7410     4.5710 hc         1 JXD       0.053033
    109 H562       -10.9210    11.4710     3.7930 hc         1 JXD       0.053033
    110 H573       -16.7550    14.8900     2.1460 hc         1 JXD       0.028033
    111 H571       -17.1010    13.1940     1.8610 hc         1 JXD       0.028033
    112 H572       -17.4440    13.8990     3.4390 hc         1 JXD       0.028033
    113 H582       -11.0060    10.1590     1.2320 hc         1 JXD       0.033367
    114 H581       -12.4530    10.0240     2.2300 hc         1 JXD       0.033367
    115 H583       -12.4230     9.3110     0.6080 hc         1 JXD       0.033367
    116 H593       -14.6330    17.2580    -0.8460 hc         1 JXD       0.023033
    117 H592       -14.6460    15.5120    -1.1140 hc         1 JXD       0.023033
    118 H591       -15.0450    16.1690     0.4820 hc         1 JXD       0.023033
    119 H602        -6.4850    16.7290    -0.7750 hc         1 JXD       0.029367
    120 H601        -7.9770    15.8280    -0.4950 hc         1 JXD       0.029367
    121 H603        -7.6500    16.5310    -2.0880 hc         1 JXD       0.029367
    122 H631        -7.9170    17.6710     7.4980 h1         1 JXD       0.059700
    123 H663       -10.2170    15.3630     3.9180 hc         1 JXD       0.053367
    124 H662       -10.9800    16.9470     4.3780 hc         1 JXD       0.053367
    125 H661        -9.6930    16.9590     3.2590 hc         1 JXD       0.053367
    126 H151        -9.9280    23.4740     9.3820 hn         1 JXD       0.327500
    127 H641        -9.3610    18.6370     5.1110 hn         1 JXD       0.396500
    128 H011        -9.6580    20.2050     8.6680 ho         1 JXD       0.508000
    129 H091       -12.2220    18.3960    10.5050 ho         1 JXD       0.506000
    130 H111       -11.8350    21.9880    13.4270 ho         1 JXD       0.505000
    131 H131        -9.7830    24.1120    13.4800 ho         1 JXD       0.447000
    132 H211        -3.9280    19.8600    10.4650 ho         1 JXD       0.473000
    133 C16         -9.0030    25.2480     9.6440 c          1 JXD       0.623100
    134 C17         -7.7100    25.9330    10.0940 c3         1 JXD      -0.178100
    135 C65         -9.0500    16.6280     5.2760 c          1 JXD       0.621100
    136 O18         -9.8900    25.8630     9.0720 o          1 JXD      -0.607100
    137 O26         -5.5920    17.5090     3.5510 o          1 JXD      -0.844000
    138 O27         -7.6830    18.8290     3.1500 os         1 JXD      -0.726800
    139 O62         -5.3590    19.7690     2.6780 o          1 JXD      -0.844000
    140 C20         -4.8180    20.5970     8.8700 c3         1 JXD       0.158600
    141 O21         -4.7320    19.6370     9.9430 oh         1 JXD      -0.714000
    142 C66        -10.0480    16.4200     4.1430 c3         1 JXD      -0.173100
    143 O67         -8.4590    15.7030     5.8160 o          1 JXD      -0.692100
@<TRIPOS>BOND
     1     1     2 1   
     2     1     7 1   
     3     1    48 1   
     4     1    57 1   
     5     2     3 1   
     6     2    49 1   
     7     2    58 1   
     8     3     6 1   
     9     3    42 1   
    10     3    59 1   
    11     4     5 1   
    12     4    41 1   
    13     4    44 1   
    14     4    62 1   
    15     5     9 1   
    16     5    45 1   
    17     5    63 1   
    18     6    45 1   
    19     6    46 1   
    20     6    64 1   
    21     7     8 1   
    22     7    46 1   
    23     7    65 1   
    24     8    47 1   
    25     8    66 1   
    26     8    67 1   
    27     9    50 1   
    28     9    71 1   
    29     9   140 1   
    30    10    41 1   
    31    10    50 1   
    32    10    51 1   
    33    10    72 1   
    34    11    12 1   
    35    11    53 1   
    36    11    73 1   
    37    11    74 1   
    38    12    13 2   
    39    12    75 1   
    40    13    14 1   
    41    13    40 1   
    42    14    15 1   
    43    14    76 1   
    44    14    77 1   
    45    15    16 1   
    46    15    78 1   
    47    15    79 1   
    48    16    17 2   
    49    16    80 1   
    50    17    18 1   
    51    17    39 1   
    52    18    19 1   
    53    18    81 1   
    54    18    82 1   
    55    19    20 1   
    56    19    83 1   
    57    19    84 1   
    58    20    21 2   
    59    20    85 1   
    60    21    22 1   
    61    21    38 1   
    62    22    23 1   
    63    22    86 1   
    64    22    87 1   
    65    23    24 1   
    66    23    88 1   
    67    23    89 1   
    68    24    25 2   
    69    24    90 1   
    70    25    26 1   
    71    25    37 1   
    72    26    27 1   
    73    26    91 1   
    74    26    92 1   
    75    27    28 1   
    76    27    93 1   
    77    27    94 1   
    78    28    29 2   
    79    28    95 1   
    80    29    30 1   
    81    29    36 1   
    82    30    31 1   
    83    30    96 1   
    84    30    97 1   
    85    31    32 1   
    86    31    98 1   
    87    31    99 1   
    88    32    33 2   
    89    32   100 1   
    90    33    34 1   
    91    33    35 1   
    92    34   101 1   
    93    34   102 1   
    94    34   103 1   
    95    35   104 1   
    96    35   105 1   
    97    35   106 1   
    98    36   107 1   
    99    36   108 1   
   100    36   109 1   
   101    37   110 1   
   102    37   111 1   
   103    37   112 1   
   104    38   113 1   
   105    38   114 1   
   106    38   115 1   
   107    39   116 1   
   108    39   117 1   
   109    39   118 1   
   110    40   119 1   
   111    40   120 1   
   112    40   121 1   
   113    41    43 1   
   114    41   122 1   
   115    42   126 1   
   116    42   133 1   
   117    43   127 1   
   118    43   135 1   
   119    44   128 1   
   120    47   129 1   
   121    48   130 1   
   122    49   131 1   
   123    51    55 1   
   124    52    56 1   
   125    53    56 1   
   126    54    56 1   
   127    55   137 1   
   128    55   138 1   
   129    55   139 1   
   130    56   138 1   
   131    60   140 1   
   132    61   140 1   
   133    68   134 1   
   134    69   134 1   
   135    70   134 1   
   136   123   142 1   
   137   124   142 1   
   138   125   142 1   
   139   132   141 1   
   140   133   134 1   
   141   133   136 2   
   142   135   142 1   
   143   135   143 2   
   144   140   141 1   
@<TRIPOS>SUBSTRUCTURE
     1 JXD         1 TEMP              0 ****  ****    0 ROOT
