@<TRIPOS>MOLECULE
JXD
  143   144     1     0     0
SMALL
bcc


@<TRIPOS>ATOM
      1 C10         -9.8520    22.9540    12.1090 c6         1 JXD       0.071100
      2 C12         -8.3290    22.9850    12.2110 c6         1 JXD       0.129100
      3 C14         -7.6730    22.6760    10.8630 c6         1 JXD       0.103700
      4 C02         -8.7840    19.3940     7.7530 c6         1 JXD       0.123100
      5 C03         -7.6150    19.7450     8.6720 c6         1 JXD       0.087100
      6 C05         -8.2280    21.3490    10.3530 c6         1 JXD       0.344900
      7 C07        -10.3020    21.6340    11.4680 c6         1 JXD       0.132100
      8 C08        -11.7880    21.6140    11.1840 c3         1 JXD       0.148400
      9 C19         -6.2820    19.6350     7.9280 c6         1 JXD       0.157100
     10 C23         -7.1160    18.0020     6.4270 c6         1 JXD       0.383900
     11 C31         -9.4570    20.7920     0.8770 c3         1 JXD       0.237600
     12 C32         -8.5380    19.7380     0.3380 c2         1 JXD      -0.159200
     13 C33         -8.9170    18.6650    -0.3620 c2         1 JXD      -0.139400
     14 C34        -10.3470    18.3630    -0.7230 c3         1 JXD      -0.015200
     15 C35        -11.0730    17.5970     0.3960 c3         1 JXD      -0.062200
     16 C36        -12.4760    17.2520     0.0050 c2         1 JXD      -0.118200
     17 C37        -13.0610    16.0520     0.0210 c2         1 JXD      -0.166400
     18 C38        -12.3850    14.7910     0.4830 c3         1 JXD      -0.035200
     19 C39        -11.9040    13.8860    -0.6610 c3         1 JXD      -0.038200
     20 C40        -11.2200    12.6660    -0.1210 c2         1 JXD      -0.145200
     21 C41        -11.7530    11.4650     0.1210 c2         1 JXD      -0.140400
     22 C42        -13.1790    11.0930    -0.1840 c3         1 JXD      -0.028200
     23 C43        -14.0210    10.7520     1.0600 c3         1 JXD      -0.032200
     24 C44        -14.1130    11.8890     2.0270 c2         1 JXD      -0.160200
     25 C45        -15.2020    12.5640     2.4030 c2         1 JXD      -0.122400
     26 C46        -15.1560    13.7350     3.3530 c3         1 JXD      -0.031200
     27 C47        -13.8180    14.1030     3.9900 c3         1 JXD      -0.039200
     28 C48        -13.3360    13.1190     5.0100 c2         1 JXD      -0.183200
     29 C49        -12.1290    12.5550     5.1150 c2         1 JXD      -0.091400
     30 C50        -11.8270    11.6250     6.2590 c3         1 JXD      -0.029200
     31 C51        -10.7340    12.1530     7.2010 c3         1 JXD      -0.051200
     32 C52        -10.5870    11.2880     8.4140 c2         1 JXD      -0.139200
     33 C53         -9.6250    10.4000     8.6740 c2         1 JXD      -0.142400
     34 C54         -9.6410     9.5920     9.9390 c3         1 JXD      -0.047400
     35 C55         -8.4620    10.1120     7.7710 c3         1 JXD      -0.047400
     36 C56        -10.9920    12.7870     4.1630 c3         1 JXD      -0.070900
     37 C57        -16.5920    12.2730     1.9150 c3         1 JXD      -0.050900
     38 C58        -10.9240    10.3760     0.7430 c3         1 JXD      -0.049900
     39 C59        -14.4850    15.8770    -0.4210 c3         1 JXD      -0.040900
     40 C60         -7.9240    17.6210    -0.7760 c3         1 JXD      -0.042900
     41 C63         -8.5150    18.0650     7.0530 c6         1 JXD       0.080700
     42 N15         -7.8740    23.7210     9.8930 ns         1 JXD      -0.553900
     43 N64         -9.5320    17.8110     6.0680 ns         1 JXD      -0.553900
     44 O01         -9.9950    19.2390     8.4450 oh         1 JXD      -0.600800
     45 O04         -7.7080    21.0940     9.1100 os         1 JXD      -0.390600
     46 O06         -9.6320    21.4500    10.2320 os         1 JXD      -0.422600
     47 O09        -12.1380    20.3400    10.7000 oh         1 JXD      -0.566800
     48 O11        -10.3550    23.0870    13.4190 oh         1 JXD      -0.612800
     49 O13         -7.8520    24.2240    12.6560 oh         1 JXD      -0.587800
     50 O22         -6.1460    18.3430     7.3660 os         1 JXD      -0.415600
     51 O24         -7.0170    18.8510     5.3180 os         1 JXD      -0.612200
     52 O29        -10.1580    20.1510     4.5980 o          1 JXD      -0.842500
     53 O30        -10.0470    20.4450     2.1310 os         1 JXD      -0.577200
     54 O61         -8.1330    21.4300     3.5490 o          1 JXD      -0.842500
     55 P25         -6.9850    18.3140     3.7520 p5         1 JXD       1.481800
     56 P28         -9.1500    20.3380     3.4910 p5         1 JXD       1.468800
     57 H101       -10.1880    23.7900    11.4780 h1         1 JXD       0.058700
     58 H121        -8.0350    22.1770    12.9010 h1         1 JXD       0.040700
     59 H141        -6.6030    22.5430    11.0280 h1         1 JXD       0.077700
     60 H201        -5.1060    20.9310     9.1400 h1         1 JXD       0.021200
     61 H202        -4.1750    19.7810     8.1880 h1         1 JXD       0.021200
     62 H021        -8.8590    20.1890     6.9950 h1         1 JXD       0.104700
     63 H031        -7.6200    19.0630     9.5320 h1         1 JXD       0.050700
     64 H051        -7.9780    20.5510    11.0730 h2         1 JXD       0.031700
     65 H071       -10.0530    20.8110    12.1570 h1         1 JXD       0.057700
     66 H082       -12.3230    21.8520    12.1110 h1         1 JXD       0.017700
     67 H081       -12.0210    22.4080    10.4610 h1         1 JXD       0.017700
     68 H172        -4.9240    25.2260     9.4660 hc         1 JXD       0.055033
     69 H173        -5.4890    24.5560    11.0020 hc         1 JXD       0.055033
     70 H171        -5.1170    23.4810     9.6610 hc         1 JXD       0.055033
     71 H191        -6.2610    20.4010     7.1390 h1         1 JXD       0.100700
     72 H231        -6.9040    16.9690     6.1400 h2         1 JXD       0.104700
     73 H312        -8.9210    21.7400     0.9680 h1         1 JXD       0.016700
     74 H311       -10.2950    20.9620     0.1990 h1         1 JXD       0.016700
     75 H321        -7.4890    19.8350     0.6000 ha         1 JXD       0.157000
     76 H342       -10.9020    19.2780    -0.9440 hc         1 JXD       0.017700
     77 H341       -10.3700    17.7630    -1.6370 hc         1 JXD       0.017700
     78 H351       -10.5000    16.7060     0.6600 hc         1 JXD       0.084200
     79 H352       -11.0850    18.2320     1.2850 hc         1 JXD       0.084200
     80 H361       -13.0710    18.0970    -0.3380 ha         1 JXD       0.102000
     81 H381       -13.0960    14.2150     1.0800 hc         1 JXD       0.054200
     82 H382       -11.5410    15.0080     1.1430 hc         1 JXD       0.054200
     83 H391       -11.2030    14.4450    -1.2870 hc         1 JXD       0.039200
     84 H392       -12.7490    13.6250    -1.3020 hc         1 JXD       0.039200
     85 H401       -10.1770    12.8110     0.1520 ha         1 JXD       0.128000
     86 H422       -13.1770    10.2120    -0.8360 hc         1 JXD       0.035200
     87 H421       -13.6820    11.8870    -0.7370 hc         1 JXD       0.035200
     88 H431       -15.0060    10.4280     0.7210 hc         1 JXD       0.031700
     89 H432       -13.5800     9.8860     1.5650 hc         1 JXD       0.031700
     90 H441       -13.1600    12.1870     2.4510 ha         1 JXD       0.144000
     91 H461       -15.5310    14.6110     2.8090 hc         1 JXD       0.035200
     92 H462       -15.8940    13.5660     4.1460 hc         1 JXD       0.035200
     93 H471       -13.9620    15.0670     4.4890 hc         1 JXD       0.060700
     94 H472       -13.0680    14.2850     3.2200 hc         1 JXD       0.060700
     95 H481       -14.0730    12.8630     5.7690 ha         1 JXD       0.098000
     96 H502       -11.5030    10.6530     5.8710 hc         1 JXD       0.027200
     97 H501       -12.7380    11.4430     6.8360 hc         1 JXD       0.027200
     98 H512       -11.0030    13.1660     7.5150 hc         1 JXD       0.075700
     99 H511        -9.7900    12.2410     6.6610 hc         1 JXD       0.075700
    100 H521       -11.3870    11.3870     9.1440 ha         1 JXD       0.101000
    101 H543       -10.5010     9.8250    10.5660 hc         1 JXD       0.031367
    102 H541        -9.6630     8.5210     9.7200 hc         1 JXD       0.031367
    103 H542        -8.7360     9.7670    10.5280 hc         1 JXD       0.031367
    104 H553        -8.4640    10.7030     6.8570 hc         1 JXD       0.031367
    105 H551        -7.5170    10.2950     8.2870 hc         1 JXD       0.031367
    106 H552        -8.4560     9.0570     7.4840 hc         1 JXD       0.031367
    107 H561       -11.2870    13.3120     3.2550 hc         1 JXD       0.053033
    108 H563       -10.2020    13.3800     4.6300 hc         1 JXD       0.053033
    109 H562       -10.5400    11.8360     3.8690 hc         1 JXD       0.053033
    110 H573       -17.0340    13.1650     1.4640 hc         1 JXD       0.028033
    111 H571       -16.6410    11.4730     1.1810 hc         1 JXD       0.028033
    112 H572       -17.2420    11.9960     2.7490 hc         1 JXD       0.028033
    113 H582        -9.8820    10.6750     0.8520 hc         1 JXD       0.033367
    114 H581       -11.2940    10.1070     1.7350 hc         1 JXD       0.033367
    115 H583       -10.9540     9.4630     0.1420 hc         1 JXD       0.033367
    116 H593       -14.9280    16.8140    -0.7580 hc         1 JXD       0.023033
    117 H592       -14.5650    15.1560    -1.2400 hc         1 JXD       0.023033
    118 H591       -15.1000    15.4850     0.3940 hc         1 JXD       0.023033
    119 H602        -6.9190    17.8390    -0.4150 hc         1 JXD       0.029367
    120 H601        -8.2150    16.6400    -0.3920 hc         1 JXD       0.029367
    121 H603        -7.8840    17.5270    -1.8650 hc         1 JXD       0.029367
    122 H631        -8.5540    17.2780     7.8140 h1         1 JXD       0.059700
    123 H663       -11.6420    15.8150     4.7530 hc         1 JXD       0.053367
    124 H662       -11.2630    17.4780     4.2640 hc         1 JXD       0.053367
    125 H661       -10.3130    16.1270     3.6460 hc         1 JXD       0.053367
    126 H151        -8.8050    23.8370     9.5180 hn         1 JXD       0.327500
    127 H641        -9.8540    18.6160     5.5210 hn         1 JXD       0.396500
    128 H011       -10.1740    20.0340     8.9680 ho         1 JXD       0.409000
    129 H091       -13.0600    20.3610    10.4310 ho         1 JXD       0.407000
    130 H111       -11.2070    23.5300    13.3920 ho         1 JXD       0.406000
    131 H131        -8.2610    24.4130    13.5080 ho         1 JXD       0.408000
    132 H211        -4.3700    19.2330    10.4870 ho         1 JXD       0.374000
    133 C16         -6.9560    24.5880     9.4120 c          1 JXD       0.690100
    134 C17         -5.5410    24.4540     9.9180 c3         1 JXD      -0.178100
    135 C65         -9.8690    16.5750     5.6780 c          1 JXD       0.688100
    136 O18         -7.2690    25.4400     8.5940 o          1 JXD      -0.607100
    137 O26         -7.0850    16.8220     3.7180 o          1 JXD      -0.844000
    138 O27         -8.4310    18.8860     3.2260 os         1 JXD      -0.726800
    139 O62         -5.8690    19.0320     3.0660 o          1 JXD      -0.844000
    140 C20         -5.0760    19.8870     8.8070 c3         1 JXD       0.135400
    141 O21         -5.0780    18.9860     9.8870 oh         1 JXD      -0.591800
    142 C66        -10.8370    16.5110     4.5230 c3         1 JXD      -0.173100
    143 O67         -9.4330    15.5560     6.2090 o          1 JXD      -0.692100
@<TRIPOS>BOND
     1     1     2 1   
     2     1     7 1   
     3     1    48 1   
     4     1    57 1   
     5     2     3 1   
     6     2    49 1   
     7     2    58 1   
     8     3     6 1   
     9     3    42 1   
    10     3    59 1   
    11     4     5 1   
    12     4    41 1   
    13     4    44 1   
    14     4    62 1   
    15     5     9 1   
    16     5    45 1   
    17     5    63 1   
    18     6    45 1   
    19     6    46 1   
    20     6    64 1   
    21     7     8 1   
    22     7    46 1   
    23     7    65 1   
    24     8    47 1   
    25     8    66 1   
    26     8    67 1   
    27     9    50 1   
    28     9    71 1   
    29     9   140 1   
    30    10    41 1   
    31    10    50 1   
    32    10    51 1   
    33    10    72 1   
    34    11    12 1   
    35    11    53 1   
    36    11    73 1   
    37    11    74 1   
    38    12    13 2   
    39    12    75 1   
    40    13    14 1   
    41    13    40 1   
    42    14    15 1   
    43    14    76 1   
    44    14    77 1   
    45    15    16 1   
    46    15    78 1   
    47    15    79 1   
    48    16    17 2   
    49    16    80 1   
    50    17    18 1   
    51    17    39 1   
    52    18    19 1   
    53    18    81 1   
    54    18    82 1   
    55    19    20 1   
    56    19    83 1   
    57    19    84 1   
    58    20    21 2   
    59    20    85 1   
    60    21    22 1   
    61    21    38 1   
    62    22    23 1   
    63    22    86 1   
    64    22    87 1   
    65    23    24 1   
    66    23    88 1   
    67    23    89 1   
    68    24    25 2   
    69    24    90 1   
    70    25    26 1   
    71    25    37 1   
    72    26    27 1   
    73    26    91 1   
    74    26    92 1   
    75    27    28 1   
    76    27    93 1   
    77    27    94 1   
    78    28    29 2   
    79    28    95 1   
    80    29    30 1   
    81    29    36 1   
    82    30    31 1   
    83    30    96 1   
    84    30    97 1   
    85    31    32 1   
    86    31    98 1   
    87    31    99 1   
    88    32    33 2   
    89    32   100 1   
    90    33    34 1   
    91    33    35 1   
    92    34   101 1   
    93    34   102 1   
    94    34   103 1   
    95    35   104 1   
    96    35   105 1   
    97    35   106 1   
    98    36   107 1   
    99    36   108 1   
   100    36   109 1   
   101    37   110 1   
   102    37   111 1   
   103    37   112 1   
   104    38   113 1   
   105    38   114 1   
   106    38   115 1   
   107    39   116 1   
   108    39   117 1   
   109    39   118 1   
   110    40   119 1   
   111    40   120 1   
   112    40   121 1   
   113    41    43 1   
   114    41   122 1   
   115    42   126 1   
   116    42   133 1   
   117    43   127 1   
   118    43   135 1   
   119    44   128 1   
   120    47   129 1   
   121    48   130 1   
   122    49   131 1   
   123    51    55 1   
   124    52    56 1   
   125    53    56 1   
   126    54    56 1   
   127    55   137 1   
   128    55   138 1   
   129    55   139 1   
   130    56   138 1   
   131    60   140 1   
   132    61   140 1   
   133    68   134 1   
   134    69   134 1   
   135    70   134 1   
   136   123   142 1   
   137   124   142 1   
   138   125   142 1   
   139   132   141 1   
   140   133   134 1   
   141   133   136 2   
   142   135   142 1   
   143   135   143 2   
   144   140   141 1   
@<TRIPOS>SUBSTRUCTURE
     1 JXD         1 TEMP              0 ****  ****    0 ROOT
