@<TRIPOS>MOLECULE
JXE
   27    28     1     0     0
SMALL
abcg2


@<TRIPOS>ATOM
      1 C13         -1.0650     0.3020    -0.1810 c3         1 JXE      -0.100400
      2 C15         -3.4870     0.4940    -0.7450 c3         1 JXE       0.092600
      3 C02          4.3950     1.5700    -0.3720 ca         1 JXE       0.456900
      4 C04          2.9950     3.2050     0.4440 ca         1 JXE       0.189900
      5 C06          2.1700     1.1750     0.3530 ca         1 JXE       0.134500
      6 C07          3.3440     0.6570    -0.1690 ca         1 JXE      -0.106600
      7 C09          2.0210    -0.9610    -0.0010 cc         1 JXE       0.348800
      8 C12         -0.0510     0.1760     0.9470 c3         1 JXE       0.081600
      9 C14         -2.4820     0.3920     0.3820 c3         1 JXE      -0.075400
     10 N01          5.5830     1.2080    -0.8550 nv         1 JXE      -1.058900
     11 N03          4.1780     2.8500    -0.0510 nb         1 JXE      -0.302000
     12 N05          1.9400     2.4430     0.6780 nb         1 JXE      -0.224000
     13 N08          3.2270    -0.6910    -0.3860 nd         1 JXE      -0.512100
     14 N11          1.3160     0.1130     0.4660 na         1 JXE      -0.266300
     15 BR2         -5.3300     0.6040    -0.0560 br         1 JXE      -0.272000
     16 H1          -0.8400     1.1920    -0.7740 hc         1 JXE       0.058200
     17 H2          -0.9850    -0.5570    -0.8520 hc         1 JXE       0.058200
     18 H3          -3.3350     1.3890    -1.3470 h1         1 JXE       0.073200
     19 H4          -3.4550    -0.3790    -1.3950 h1         1 JXE       0.073200
     20 H5           2.8870     4.2570     0.6840 h5         1 JXE       0.049100
     21 H6          -0.1100     1.0390     1.6090 h1         1 JXE       0.075200
     22 H7          -0.2480    -0.7050     1.5580 h1         1 JXE       0.075200
     23 H8          -2.6900    -0.4930     0.9890 hc         1 JXE       0.058700
     24 H9          -2.5640     1.2610     1.0390 hc         1 JXE       0.058700
     25 H10          5.7560     0.2650    -1.1580 hn         1 JXE       0.508500
     26 H11          6.2850     1.9030    -1.0450 hn         1 JXE       0.508500
     27 BR1          1.2850    -2.6610    -0.0560 br         1 JXE       0.017700
@<TRIPOS>BOND
     1     1     8 1   
     2     1     9 1   
     3     1    16 1   
     4     1    17 1   
     5     2     9 1   
     6     2    15 1   
     7     2    18 1   
     8     2    19 1   
     9     3     6 ar  
    10     3    10 1   
    11     3    11 ar  
    12     4    11 ar  
    13     4    12 ar  
    14     4    20 1   
    15     5     6 ar  
    16     5    12 ar  
    17     5    14 1   
    18     6    13 1   
    19     7    13 2   
    20     7    14 1   
    21     7    27 1   
    22     8    14 1   
    23     8    21 1   
    24     8    22 1   
    25     9    23 1   
    26     9    24 1   
    27    10    25 1   
    28    10    26 1   
@<TRIPOS>SUBSTRUCTURE
     1 JXE         1 TEMP              0 ****  ****    0 ROOT
