@<TRIPOS>MOLECULE
JXE
   27    28     1     0     0
SMALL
No Charge or Current Charge


@<TRIPOS>ATOM
      1 C13         -1.0500     0.3090    -0.1490 c3         1 JXE      -0.100400
      2 C15         -3.5260     0.5610    -0.7950 c3         1 JXE       0.092600
      3 C02          4.3900     1.5900    -0.3300 ca         1 JXE       0.456900
      4 C04          3.0210     3.2710     0.4050 ca         1 JXE       0.189900
      5 C06          2.1600     1.1540     0.3950 ca         1 JXE       0.134500
      6 C07          3.3470     0.6700    -0.0990 ca         1 JXE      -0.106600
      7 C09          2.0780    -1.0600     0.0770 cc         1 JXE       0.348800
      8 C12         -0.0320     0.1260     0.9960 c3         1 JXE       0.081600
      9 C14         -2.5100     0.3770     0.3490 c3         1 JXE      -0.075400
     10 N01          5.6020     1.2160    -0.8210 nv         1 JXE      -1.058900
     11 N03          4.2310     2.8990    -0.0810 nb         1 JXE      -0.302000
     12 N05          1.9650     2.4610     0.6590 nb         1 JXE      -0.224000
     13 N08          3.3190    -0.7160    -0.3080 nd         1 JXE      -0.512100
     14 N11          1.3570     0.0550     0.5100 na         1 JXE      -0.266300
     15 Br2         -5.3920     0.6420    -0.1020 br         1 JXE      -0.272000
     16 H1          -0.8100     1.2290    -0.6960 hc         1 JXE       0.058200
     17 H2          -0.9470    -0.5220    -0.8570 hc         1 JXE       0.058200
     18 H3          -3.3440     1.4990    -1.3340 h1         1 JXE       0.073200
     19 H4          -3.4820    -0.2810    -1.4970 h1         1 JXE       0.073200
     20 H5           2.8830     4.3310     0.6110 h5         1 JXE       0.049100
     21 H6          -0.1220     0.9620     1.7030 h1         1 JXE       0.075200
     22 H7          -0.2630    -0.7950     1.5480 h1         1 JXE       0.075200
     23 H8          -2.7510    -0.5430     0.8960 hc         1 JXE       0.058700
     24 H9          -2.6150     1.2100     1.0570 hc         1 JXE       0.058700
     25 H10          5.6630     0.2840    -1.2230 hn         1 JXE       0.508500
     26 H11          6.1920     1.9310    -1.2390 hn         1 JXE       0.508500
     27 Br1          1.3760    -2.8140     0.0300 br         1 JXE       0.017700
@<TRIPOS>BOND
     1     1     8 1   
     2     1     9 1   
     3     1    16 1   
     4     1    17 1   
     5     2     9 1   
     6     2    15 1   
     7     2    18 1   
     8     2    19 1   
     9     3     6 ar  
    10     3    10 1   
    11     3    11 ar  
    12     4    11 ar  
    13     4    12 ar  
    14     4    20 1   
    15     5     6 ar  
    16     5    12 ar  
    17     5    14 1   
    18     6    13 1   
    19     7    13 2   
    20     7    14 1   
    21     7    27 1   
    22     8    14 1   
    23     8    21 1   
    24     8    22 1   
    25     9    23 1   
    26     9    24 1   
    27    10    25 1   
    28    10    26 1   
@<TRIPOS>SUBSTRUCTURE
     1 JXE         1 TEMP              0 ****  ****    0 ROOT
