@<TRIPOS>MOLECULE
JXF
   43    44     1     0     0
SMALL
bcc


@<TRIPOS>ATOM
      1 O1          -5.8870    -9.8900   -28.3790 os         1 JXF      -0.319900
      2 O2           2.0040    -8.9170   -24.6450 o          1 JXF      -0.848800
      3 O3           2.6050    -7.4960   -26.2570 o          1 JXF      -0.848800
      4 O           -4.9480    -9.9800   -24.9590 o          1 JXF      -0.670100
      5 O4          -3.1110    -6.6040   -27.7690 o          1 JXF      -0.820800
      6 O5          -1.9360    -6.0330   -25.9590 o          1 JXF      -0.820800
      7 N           -4.1010    -8.7410   -26.6610 ns         1 JXF      -0.500900
      8 C           -4.9950    -9.5600   -26.1080 c          1 JXF       0.621100
      9 C1          -6.1760    -9.9270   -27.0030 c3         1 JXF       0.040400
     10 C10          0.3980    -8.3610   -26.3200 c5         1 JXF       0.033500
     11 C11          1.7970    -8.2430   -25.6730 c          1 JXF       0.945600
     12 C12          0.4060    -9.3130   -27.5490 c5         1 JXF       0.081100
     13 C13          1.1570   -10.6160   -27.2890 c3         1 JXF      -0.062100
     14 C14          0.9370    -8.6360   -28.8040 c3         1 JXF      -0.062100
     15 C15         -2.6260    -6.8110   -26.6390 c          1 JXF       0.938600
     16 C2          -5.0640   -10.8390   -28.8920 ca         1 JXF       0.150100
     17 C3          -4.6990   -10.6690   -30.2270 ca         1 JXF      -0.169500
     18 C4          -3.8710   -11.5920   -30.8420 ca         1 JXF      -0.094000
     19 C5          -3.3970   -12.6950   -30.1410 ca         1 JXF      -0.168000
     20 C6          -3.7620   -12.8580   -28.8150 ca         1 JXF      -0.094000
     21 C7          -4.5910   -11.9380   -28.1810 ca         1 JXF      -0.169500
     22 C8          -2.9450    -8.1880   -25.9940 c3         1 JXF      -0.035300
     23 C9          -1.8050    -9.2260   -26.0230 c5         1 JXF       0.344600
     24 N1          -0.5910    -8.8300   -25.3750 n7         1 JXF      -0.756200
     25 S           -1.3810    -9.6790   -27.7770 ss         1 JXF      -0.546200
     26 H10         -4.2580    -8.3550   -27.5830 hn         1 JXF       0.357500
     27 H4          -6.9660    -9.1890   -26.8430 h1         1 JXF       0.054200
     28 H3          -6.5740   -10.8950   -26.6860 h1         1 JXF       0.054200
     29 H2           0.1000    -7.3740   -26.6800 h1         1 JXF       0.108700
     30 H12          0.8210   -11.1050   -26.3750 hc         1 JXF       0.027700
     31 H14          1.0020   -11.3130   -28.1130 hc         1 JXF       0.027700
     32 H13          2.2310   -10.4410   -27.2060 hc         1 JXF       0.027700
     33 H15          1.9920    -8.3910   -28.6780 hc         1 JXF       0.027700
     34 H16          0.8490    -9.2870   -29.6760 hc         1 JXF       0.027700
     35 H17          0.3960    -7.7130   -29.0160 hc         1 JXF       0.027700
     36 H5          -5.0660    -9.8090   -30.7740 ha         1 JXF       0.141000
     37 H6          -3.5940   -11.4460   -31.8780 ha         1 JXF       0.115500
     38 H7          -2.7490   -13.4150   -30.6240 ha         1 JXF       0.114000
     39 H8          -3.3990   -13.7080   -28.2520 ha         1 JXF       0.115500
     40 H9          -4.8470   -12.1040   -27.1430 ha         1 JXF       0.141000
     41 H           -3.1820    -8.0240   -24.9380 h1         1 JXF       0.063700
     42 H1          -2.1930   -10.1180   -25.5270 h2         1 JXF       0.034700
     43 H11         -0.1940    -9.6010   -24.8530 hn         1 JXF       0.367800
@<TRIPOS>BOND
     1     1     9 1   
     2     1    16 1   
     3     2    11 1   
     4     3    11 1   
     5     4     8 2   
     6     5    15 1   
     7     6    15 1   
     8     7     8 1   
     9     7    22 1   
    10     7    26 1   
    11     8     9 1   
    12     9    27 1   
    13     9    28 1   
    14    10    11 1   
    15    10    12 1   
    16    10    24 1   
    17    10    29 1   
    18    12    13 1   
    19    12    14 1   
    20    12    25 1   
    21    13    30 1   
    22    13    31 1   
    23    13    32 1   
    24    14    33 1   
    25    14    34 1   
    26    14    35 1   
    27    15    22 1   
    28    16    17 ar  
    29    16    21 ar  
    30    17    18 ar  
    31    17    36 1   
    32    18    19 ar  
    33    18    37 1   
    34    19    20 ar  
    35    19    38 1   
    36    20    21 ar  
    37    20    39 1   
    38    21    40 1   
    39    22    23 1   
    40    22    41 1   
    41    23    24 1   
    42    23    25 1   
    43    23    42 1   
    44    24    43 1   
@<TRIPOS>SUBSTRUCTURE
     1 JXF         1 TEMP              0 ****  ****    0 ROOT
