@<TRIPOS>MOLECULE
JXF
   43    44     1     0     0
SMALL
No Charge or Current Charge


@<TRIPOS>ATOM
      1 O1          -6.0070    -9.9080   -28.3480 os         1 JXF      -0.343100
      2 O2           2.3090    -8.7110   -24.7070 o          1 JXF      -0.743500
      3 O3           2.4780    -7.0590   -26.0470 o          1 JXF      -0.743500
      4 O           -4.8460   -10.0040   -24.9580 o          1 JXF      -0.670100
      5 O4          -2.6620    -6.7630   -27.9870 o          1 JXF      -0.715500
      6 O5          -2.0890    -5.9400   -26.0920 o          1 JXF      -0.715500
      7 N           -4.1680    -8.6560   -26.6650 ns         1 JXF      -0.433900
      8 C           -5.0380    -9.5490   -26.0800 c          1 JXF       0.554100
      9 C1          -6.2840    -9.9060   -26.9260 c3         1 JXF       0.063600
     10 C10          0.4260    -8.3370   -26.2080 c5         1 JXF       0.033500
     11 C11          1.8710    -8.0370   -25.6330 c          1 JXF       0.735000
     12 C12          0.5270    -9.3360   -27.4070 c5         1 JXF       0.129000
     13 C13          1.4020   -10.5940   -27.1480 c3         1 JXF      -0.062100
     14 C14          0.9970    -8.6550   -28.7160 c3         1 JXF      -0.062100
     15 C15         -2.4240    -6.8880   -26.7910 c          1 JXF       0.728000
     16 C2          -5.2030   -10.8550   -28.9550 ca         1 JXF       0.150100
     17 C3          -4.9240   -10.6950   -30.3230 ca         1 JXF      -0.151500
     18 C4          -4.1180   -11.6260   -31.0000 ca         1 JXF      -0.076000
     19 C5          -3.5870   -12.7260   -30.3070 ca         1 JXF      -0.150000
     20 C6          -3.8630   -12.8960   -28.9400 ca         1 JXF      -0.076000
     21 C7          -4.6700   -11.9660   -28.2620 ca         1 JXF      -0.151500
     22 C8          -2.8860    -8.1850   -26.0740 c3         1 JXF      -0.035300
     23 C9          -1.7940    -9.2950   -25.9900 c5         1 JXF       0.392500
     24 N1          -0.5680    -8.9500   -25.2440 n7         1 JXF      -0.811400
     25 S           -1.2220    -9.9180   -27.6450 ss         1 JXF      -0.642000
     26 H10         -4.3910    -8.3600   -27.6090 hn         1 JXF       0.357500
     27 H4          -7.0430    -9.1470   -26.7040 h1         1 JXF       0.054200
     28 H3          -6.6760   -10.8760   -26.5960 h1         1 JXF       0.054200
     29 H2           0.0620    -7.3690   -26.5690 h1         1 JXF       0.108700
     30 H12          1.1030   -11.1120   -26.2300 hc         1 JXF       0.027700
     31 H14          1.3140   -11.3120   -27.9730 hc         1 JXF       0.027700
     32 H13          2.4640   -10.3360   -27.0560 hc         1 JXF       0.027700
     33 H15          2.0310    -8.3000   -28.6320 hc         1 JXF       0.027700
     34 H16          0.9530    -9.3480   -29.5650 hc         1 JXF       0.027700
     35 H17          0.3680    -7.7910   -28.9620 hc         1 JXF       0.027700
     36 H5          -5.3350    -9.8440   -30.8590 ha         1 JXF       0.123000
     37 H6          -3.9050   -11.4940   -32.0580 ha         1 JXF       0.097500
     38 H7          -2.9620   -13.4470   -30.8290 ha         1 JXF       0.096000
     39 H8          -3.4510   -13.7490   -28.4050 ha         1 JXF       0.097500
     40 H9          -4.8700   -12.1250   -27.2070 ha         1 JXF       0.123000
     41 H           -3.1070    -7.8940   -25.0400 h1         1 JXF       0.063700
     42 H1          -2.2650   -10.1440   -25.4800 h2         1 JXF       0.034700
     43 H11         -0.1590    -9.8240   -24.9010 hn         1 JXF       0.423000
@<TRIPOS>BOND
     1     1     9 1   
     2     1    16 1   
     3     2    11 1   
     4     3    11 1   
     5     4     8 2   
     6     5    15 1   
     7     6    15 1   
     8     7     8 1   
     9     7    22 1   
    10     7    26 1   
    11     8     9 1   
    12     9    27 1   
    13     9    28 1   
    14    10    11 1   
    15    10    12 1   
    16    10    24 1   
    17    10    29 1   
    18    12    13 1   
    19    12    14 1   
    20    12    25 1   
    21    13    30 1   
    22    13    31 1   
    23    13    32 1   
    24    14    33 1   
    25    14    34 1   
    26    14    35 1   
    27    15    22 1   
    28    16    17 ar  
    29    16    21 ar  
    30    17    18 ar  
    31    17    36 1   
    32    18    19 ar  
    33    18    37 1   
    34    19    20 ar  
    35    19    38 1   
    36    20    21 ar  
    37    20    39 1   
    38    21    40 1   
    39    22    23 1   
    40    22    41 1   
    41    23    24 1   
    42    23    25 1   
    43    23    42 1   
    44    24    43 1   
@<TRIPOS>SUBSTRUCTURE
     1 JXF         1 TEMP              0 ****  ****    0 ROOT
