@<TRIPOS>MOLECULE
JXG
   30    30     1     0     0
SMALL
abcg2


@<TRIPOS>ATOM
      1 OAG         -2.8490    -1.2360     1.6710 o          1 JXG      -0.704200
      2 SAR         -3.5990    -0.2420     0.9040 s6         1 JXG       1.504300
      3 OAE         -4.4310    -0.8070    -0.1570 o          1 JXG      -0.704200
      4 OAF         -4.2400     0.8000     1.7020 o          1 JXG      -0.704200
      5 OAL         -2.4520     0.6870     0.1290 os         1 JXG      -0.409000
      6 NAK         -1.6600    -0.1120    -0.7160 n7         1 JXG      -0.551900
      7 CAO         -0.2850    -0.0900    -0.2410 c6         1 JXG       0.154700
      8 CAJ          0.5090    -1.0060    -1.1620 c6         1 JXG       0.110000
      9 CAI          0.3520     1.2700    -0.2670 c2         1 JXG      -0.170200
     10 CAN          1.6520     1.4500    -0.4800 c2         1 JXG      -0.178400
     11 CAD          2.2800     2.8050    -0.5880 c3         1 JXG      -0.042900
     12 CAP          2.5970     0.2770    -0.5740 c6         1 JXG       0.077900
     13 CAM          3.3280     0.1980     0.7800 c          1 JXG       0.608100
     14 O2           2.7810    -0.2800     1.7580 o          1 JXG      -0.581100
     15 N            4.5380     0.7650     0.7950 nt         1 JXG      -0.606000
     16 NAQ          1.9130    -0.9760    -0.8170 n          1 JXG      -0.395800
     17 CAH          2.6420    -2.1020    -0.8310 c          1 JXG       0.605900
     18 O            3.8450    -2.1440    -0.6390 o          1 JXG      -0.631100
     19 H1          -1.7170     0.3510    -1.6190 hn         1 JXG       0.394000
     20 H2          -0.2840    -0.5110     0.7680 h1         1 JXG       0.135700
     21 H3           0.1540    -2.0330    -1.0790 h1         1 JXG       0.051700
     22 H4           0.3630    -0.6870    -2.2000 h1         1 JXG       0.051700
     23 H5          -0.2900     2.1360    -0.1450 ha         1 JXG       0.202000
     24 H6           1.5290     3.5900    -0.5240 hc         1 JXG       0.034700
     25 H7           3.0160     2.9820     0.1990 hc         1 JXG       0.034700
     26 H8           2.8060     2.9130    -1.5390 hc         1 JXG       0.034700
     27 H9           3.3220     0.4630    -1.3750 h1         1 JXG       0.050700
     28 H10          5.0730     0.8030     1.6480 hn         1 JXG       0.305500
     29 H11          4.9950     1.0650    -0.0480 hn         1 JXG       0.305500
     30 H13          2.0420    -3.0020    -1.0330 h5         1 JXG       0.018200
@<TRIPOS>BOND
     1     1     2 1   
     2     2     3 1   
     3     2     4 1   
     4     2     5 1   
     5     5     6 1   
     6     6     7 1   
     7     6    19 1   
     8     7     8 1   
     9     7     9 1   
    10     7    20 1   
    11     8    16 1   
    12     8    21 1   
    13     8    22 1   
    14     9    10 2   
    15     9    23 1   
    16    10    11 1   
    17    10    12 1   
    18    11    24 1   
    19    11    25 1   
    20    11    26 1   
    21    12    13 1   
    22    12    16 1   
    23    12    27 1   
    24    13    14 2   
    25    13    15 1   
    26    15    28 1   
    27    15    29 1   
    28    16    17 1   
    29    17    18 2   
    30    17    30 1   
@<TRIPOS>SUBSTRUCTURE
     1 JXG         1 TEMP              0 ****  ****    0 ROOT
