@<TRIPOS>MOLECULE
JXG
   30    30     1     0     0
SMALL
No Charge or Current Charge


@<TRIPOS>ATOM
      1 OAG         -2.9440    -0.8800     2.1480 o          1 JXG      -0.704200
      2 SAR         -3.6130     0.1000     1.2740 s6         1 JXG       1.504300
      3 OAE         -4.5460    -0.5000     0.3040 o          1 JXG      -0.704200
      4 OAF         -4.1560     1.2690     1.9870 o          1 JXG      -0.704200
      5 OAL         -2.3770     0.7360     0.3320 os         1 JXG      -0.409000
      6 NAK         -1.6110    -0.1960    -0.5670 n7         1 JXG      -0.551900
      7 CAO         -0.1610    -0.1600    -0.2620 c6         1 JXG       0.154700
      8 CAJ          0.6210    -1.2170    -1.0940 c6         1 JXG       0.110000
      9 CAI          0.4150     1.2150    -0.5350 c2         1 JXG      -0.170200
     10 CAN          1.7410     1.3860    -0.6440 c2         1 JXG      -0.178400
     11 CAD          2.3920     2.7140    -0.9850 c3         1 JXG      -0.042900
     12 CAP          2.6810     0.1860    -0.4630 c6         1 JXG       0.077900
     13 CAM          3.1040    -0.0080     1.0280 c          1 JXG       0.608100
     14 O2           2.7460    -0.9530     1.7160 o          1 JXG      -0.581100
     15 N            3.8910     0.9530     1.5700 nt         1 JXG      -0.606000
     16 NAQ          2.1070    -1.0580    -1.0830 n          1 JXG      -0.395800
     17 CAH          2.9250    -2.0350    -1.6730 c          1 JXG       0.605900
     18 O            4.1490    -1.9550    -1.6940 o          1 JXG      -0.631100
     19 H1          -1.8010     0.1120    -1.5310 hn         1 JXG       0.394000
     20 H2          -0.0140    -0.3960     0.8030 h1         1 JXG       0.135700
     21 H3           0.3620    -2.2210    -0.7290 h1         1 JXG       0.051700
     22 H4           0.2880    -1.1580    -2.1400 h1         1 JXG       0.051700
     23 H5          -0.2840     2.0430    -0.6620 ha         1 JXG       0.202000
     24 H6           1.6440     3.5000    -1.1430 hc         1 JXG       0.034700
     25 H7           3.0570     3.0540    -0.1830 hc         1 JXG       0.034700
     26 H8           2.9860     2.6370    -1.9040 hc         1 JXG       0.034700
     27 H9           3.6160     0.4220    -0.9920 h1         1 JXG       0.050700
     28 H10          4.1770     0.8710     2.5340 hn         1 JXG       0.305500
     29 H11          4.1820     1.7420     1.0130 hn         1 JXG       0.305500
     30 H13          2.3510    -2.8760    -2.1070 h5         1 JXG       0.018200
@<TRIPOS>BOND
     1     1     2 1   
     2     2     3 1   
     3     2     4 1   
     4     2     5 1   
     5     5     6 1   
     6     6     7 1   
     7     6    19 1   
     8     7     8 1   
     9     7     9 1   
    10     7    20 1   
    11     8    16 1   
    12     8    21 1   
    13     8    22 1   
    14     9    10 2   
    15     9    23 1   
    16    10    11 1   
    17    10    12 1   
    18    11    24 1   
    19    11    25 1   
    20    11    26 1   
    21    12    13 1   
    22    12    16 1   
    23    12    27 1   
    24    13    14 2   
    25    13    15 1   
    26    15    28 1   
    27    15    29 1   
    28    16    17 1   
    29    17    18 2   
    30    17    30 1   
@<TRIPOS>SUBSTRUCTURE
     1 JXG         1 TEMP              0 ****  ****    0 ROOT
