@<TRIPOS>MOLECULE
JXH
   29    31     1     0     0
SMALL
No Charge or Current Charge


@<TRIPOS>ATOM
      1 C2           0.2170    -1.0310    -0.1670 cc         1 JXH       0.371800
      2 C3           2.2340    -0.2780    -0.0810 ca         1 JXH      -0.101600
      3 C4           3.6320    -0.0950    -0.0820 ca         1 JXH       0.454900
      4 C5           3.3020     2.1360     0.3100 ca         1 JXH       0.188900
      5 C6          -1.0080     1.2430     0.0640 c6         1 JXH       0.319300
      6 C7          -1.7420     1.2700    -1.3030 c6         1 JXH      -0.122400
      7 C10         -3.0350     1.6940     1.2960 c6         1 JXH       0.167600
      8 C1           1.4390     0.8220     0.1270 ca         1 JXH       0.140500
      9 C8          -3.0090     2.1570    -1.2110 c6         1 JXH      -0.074400
     10 C9          -3.8800     1.7350    -0.0010 c6         1 JXH      -0.117400
     11 N1           0.1610     0.3450     0.0790 na         1 JXH      -0.267300
     12 N2           1.9500     2.0540     0.3250 nb         1 JXH      -0.227000
     13 N3           1.4910    -1.4520    -0.2600 nd         1 JXH      -0.524100
     14 N4           4.1750     1.1170     0.1160 nb         1 JXH      -0.302000
     15 N5           4.5070    -1.1180    -0.2740 nv         1 JXH      -1.058900
     16 O1          -1.9000     0.8210     1.1150 os         1 JXH      -0.460000
     17 Br1         -1.2880    -2.1750    -0.2730 br         1 JXH       0.027700
     18 H1           3.7330     3.1230     0.4700 h5         1 JXH       0.047100
     19 H2          -0.6370     2.2540     0.2920 h2         1 JXH       0.080700
     20 H3          -1.0680     1.6550    -2.0800 hc         1 JXH       0.064700
     21 H4          -2.0300     0.2580    -1.6110 hc         1 JXH       0.064700
     22 H5          -2.6820     2.7030     1.5560 h1         1 JXH       0.052200
     23 H6          -3.6450     1.3190     2.1310 h1         1 JXH       0.052200
     24 H7          -2.7140     3.2110    -1.1030 hc         1 JXH       0.048700
     25 H8          -3.5900     2.0870    -2.1410 hc         1 JXH       0.048700
     26 H9          -4.3190     0.7440    -0.1830 hc         1 JXH       0.055200
     27 H10         -4.7200     2.4320     0.1220 hc         1 JXH       0.055200
     28 H11          5.4700    -0.9830     0.0220 hn         1 JXH       0.507500
     29 H12          4.1360    -2.0630    -0.2040 hn         1 JXH       0.507500
@<TRIPOS>BOND
     1     1    11 1   
     2     1    13 2   
     3     1    17 1   
     4     2     3 ar  
     5     2     8 ar  
     6     2    13 1   
     7     3    14 ar  
     8     3    15 1   
     9     4    12 ar  
    10     4    14 ar  
    11     4    18 1   
    12     5     6 1   
    13     5    11 1   
    14     5    16 1   
    15     5    19 1   
    16     6     9 1   
    17     6    20 1   
    18     6    21 1   
    19     7    10 1   
    20     7    16 1   
    21     7    22 1   
    22     7    23 1   
    23     8    11 1   
    24     8    12 ar  
    25     9    10 1   
    26     9    24 1   
    27     9    25 1   
    28    10    26 1   
    29    10    27 1   
    30    15    28 1   
    31    15    29 1   
@<TRIPOS>SUBSTRUCTURE
     1 JXH         1 TEMP              0 ****  ****    0 ROOT
