@<TRIPOS>MOLECULE
JXH
   29    31     1     0     0
SMALL
abcg2


@<TRIPOS>ATOM
      1 C2           0.2290    -0.9920    -0.1630 cc         1 JXH       0.371800
      2 C3           2.2190    -0.3250    -0.0410 ca         1 JXH      -0.101600
      3 C4           3.6110    -0.1330     0.0240 ca         1 JXH       0.454900
      4 C5           3.1860     2.1220     0.1960 ca         1 JXH       0.188900
      5 C6          -1.0230     1.2380    -0.0060 c6         1 JXH       0.319300
      6 C7          -1.7660     1.3290    -1.3330 c6         1 JXH      -0.122400
      7 C10         -2.9600     1.6040     1.2620 c6         1 JXH       0.167600
      8 C1           1.4340     0.8120     0.0250 ca         1 JXH       0.140500
      9 C8          -2.9940     2.2170    -1.1530 c6         1 JXH      -0.074400
     10 C9          -3.8270     1.7180     0.0220 c6         1 JXH      -0.117400
     11 N1           0.1390     0.3720    -0.0580 na         1 JXH      -0.267300
     12 N2           1.8650     2.0630     0.1440 nb         1 JXH      -0.227000
     13 N3           1.4400    -1.4460    -0.1570 nd         1 JXH      -0.524100
     14 N4           4.0600     1.1220     0.1440 nb         1 JXH      -0.302000
     15 N5           4.4840    -1.1380    -0.0440 nv         1 JXH      -1.058900
     16 O1          -1.8260     0.7780     1.0390 os         1 JXH      -0.460000
     17 BR1         -1.2460    -2.1060    -0.2840 br         1 JXH       0.027700
     18 H1           3.6150     3.1130     0.2970 h5         1 JXH       0.047100
     19 H2          -0.6220     2.2350     0.2280 h2         1 JXH       0.080700
     20 H3          -1.0910     1.7420    -2.0850 hc         1 JXH       0.064700
     21 H4          -2.0760     0.3400    -1.6750 hc         1 JXH       0.064700
     22 H5          -2.6330     2.6040     1.5810 h1         1 JXH       0.052200
     23 H6          -3.5040     1.1520     2.0910 h1         1 JXH       0.052200
     24 H7          -2.6760     3.2480    -0.9680 hc         1 JXH       0.048700
     25 H8          -3.5830     2.2310    -2.0700 hc         1 JXH       0.048700
     26 H9          -4.2600     0.7410    -0.2160 hc         1 JXH       0.055200
     27 H10         -4.6570     2.3970     0.2290 hc         1 JXH       0.055200
     28 H11          5.4670    -0.9600     0.0730 hn         1 JXH       0.507500
     29 H12          4.1740    -2.0940    -0.0490 hn         1 JXH       0.507500
@<TRIPOS>BOND
     1     1    11 1   
     2     1    13 2   
     3     1    17 1   
     4     2     3 ar  
     5     2     8 ar  
     6     2    13 1   
     7     3    14 ar  
     8     3    15 1   
     9     4    12 ar  
    10     4    14 ar  
    11     4    18 1   
    12     5     6 1   
    13     5    11 1   
    14     5    16 1   
    15     5    19 1   
    16     6     9 1   
    17     6    20 1   
    18     6    21 1   
    19     7    10 1   
    20     7    16 1   
    21     7    22 1   
    22     7    23 1   
    23     8    11 1   
    24     8    12 ar  
    25     9    10 1   
    26     9    24 1   
    27     9    25 1   
    28    10    26 1   
    29    10    27 1   
    30    15    28 1   
    31    15    29 1   
@<TRIPOS>SUBSTRUCTURE
     1 JXH         1 TEMP              0 ****  ****    0 ROOT
