@<TRIPOS>MOLECULE
JXI
   47    50     1     0     0
SMALL
abcg2


@<TRIPOS>ATOM
      1 C1          32.0200   -48.6290    -8.1340 ca         1 JXI      -0.072300
      2 C2          32.0140   -48.6890    -6.7440 ca         1 JXI      -0.095500
      3 C3          33.1660   -49.0140    -6.0390 ca         1 JXI      -0.112500
      4 C4          34.3450   -49.2790    -6.7210 ca         1 JXI      -0.107000
      5 C5          34.3630   -49.2160    -8.1090 ca         1 JXI      -0.112500
      6 C6          33.2090   -48.8940    -8.8100 ca         1 JXI      -0.095500
      7 C7          30.7540   -48.3270    -8.8890 c5         1 JXI       0.148800
      8 C8          30.0660   -49.5900    -9.4440 c5         1 JXI       0.162800
      9 N9          29.5470   -49.1000   -10.7100 nh         1 JXI      -0.764600
     10 C10         30.2610   -47.9680   -11.0060 c2         1 JXI       0.572200
     11 N11         30.9610   -47.4740   -10.0560 n2         1 JXI      -0.613900
     12 C12         30.1370   -47.3060   -12.3400 c3         1 JXI      -0.098700
     13 C13         29.1320   -50.0710   -11.6930 c3         1 JXI       0.200100
     14 C14         28.7620   -46.6470   -12.4990 c3         1 JXI      -0.120700
     15 C15         28.6350   -45.9390   -13.8140 cc         1 JXI       0.530900
     16 N16         29.5570   -45.0880   -14.1650 nd         1 JXI      -0.665300
     17 N17         27.5610   -46.2100   -14.5740 ns         1 JXI      -0.413400
     18 C18         27.2680   -45.6080   -15.8200 c          1 JXI       0.607200
     19 O19         26.2340   -45.9030   -16.4090 o          1 JXI      -0.553000
     20 C20         29.3540   -44.5020   -15.3610 cd         1 JXI       0.393600
     21 C21         28.2830   -44.7150   -16.1980 cc         1 JXI      -0.422400
     22 C22         28.4250   -43.7500   -17.3380 c5         1 JXI       0.211000
     23 N23         29.8390   -43.3370   -17.2430 n7         1 JXI      -0.529200
     24 N24         30.1780   -43.5620   -15.8800 nh         1 JXI      -0.432200
     25 C25         31.5410   -43.3270   -15.5000 c3         1 JXI       0.213100
     26 H26         31.0970   -48.4770    -6.2040 ha         1 JXI       0.113000
     27 H27         33.1420   -49.0560    -4.9580 ha         1 JXI       0.112000
     28 H28         35.2460   -49.5300    -6.1760 ha         1 JXI       0.112000
     29 H29         35.2800   -49.4180    -8.6480 ha         1 JXI       0.112000
     30 H30         33.2350   -48.8460    -9.8920 ha         1 JXI       0.113000
     31 H1          30.0660   -47.8110    -8.2070 h1         1 JXI       0.076700
     32 H31         30.7860   -50.4020    -9.6140 h1         1 JXI       0.053700
     33 H2          29.2760   -49.9690    -8.7960 h1         1 JXI       0.053700
     34 H33         30.9150   -46.5500   -12.4170 hc         1 JXI       0.077200
     35 H32         30.2990   -48.0270   -13.1450 hc         1 JXI       0.077200
     36 H35         28.7030   -49.5850   -12.5670 h1         1 JXI       0.037700
     37 H36         29.9590   -50.7110   -12.0220 h1         1 JXI       0.037700
     38 H34         28.3600   -50.7100   -11.2650 h1         1 JXI       0.037700
     39 H37         27.9640   -47.3810   -12.3850 hc         1 JXI       0.075200
     40 H38         28.6220   -45.9070   -11.7060 hc         1 JXI       0.075200
     41 H39         26.8850   -46.8830   -14.2340 hn         1 JXI       0.328500
     42 H40         28.2350   -44.1690   -18.3260 h1         1 JXI       0.070700
     43 H3          27.7720   -42.8800   -17.2150 h1         1 JXI       0.070700
     44 H4          30.3850   -44.0090   -17.7850 hn         1 JXI       0.379000
     45 H42         31.8040   -42.2890   -15.6960 h1         1 JXI       0.051700
     46 H41         31.6520   -43.5180   -14.4360 h1         1 JXI       0.051700
     47 H43         32.2370   -43.9740   -16.0440 h1         1 JXI       0.051700
@<TRIPOS>BOND
     1     1     2 ar  
     2     1     6 ar  
     3     1     7 1   
     4     2     3 ar  
     5     2    26 1   
     6     3     4 ar  
     7     3    27 1   
     8     4     5 ar  
     9     4    28 1   
    10     5     6 ar  
    11     5    29 1   
    12     6    30 1   
    13     7     8 1   
    14     7    11 1   
    15     7    31 1   
    16     8     9 1   
    17     8    32 1   
    18     8    33 1   
    19     9    10 1   
    20     9    13 1   
    21    10    11 2   
    22    10    12 1   
    23    12    14 1   
    24    12    34 1   
    25    12    35 1   
    26    13    36 1   
    27    13    37 1   
    28    13    38 1   
    29    14    15 1   
    30    14    39 1   
    31    14    40 1   
    32    15    16 2   
    33    15    17 1   
    34    16    20 1   
    35    17    18 1   
    36    17    41 1   
    37    18    19 2   
    38    18    21 1   
    39    20    21 2   
    40    20    24 1   
    41    21    22 1   
    42    22    23 1   
    43    22    42 1   
    44    22    43 1   
    45    23    24 1   
    46    23    44 1   
    47    24    25 1   
    48    25    45 1   
    49    25    46 1   
    50    25    47 1   
@<TRIPOS>SUBSTRUCTURE
     1 JXI         1 TEMP              0 ****  ****    0 ROOT
