@<TRIPOS>MOLECULE
JXI
   47    50     1     0     0
SMALL
No Charge or Current Charge


@<TRIPOS>ATOM
      1 C1          32.1080   -48.8470    -8.0740 ca         1 JXI      -0.072300
      2 C2          32.3020   -48.7030    -6.6850 ca         1 JXI      -0.095500
      3 C3          33.4350   -49.2510    -6.0590 ca         1 JXI      -0.112500
      4 C4          34.3900   -49.9480    -6.8160 ca         1 JXI      -0.107000
      5 C5          34.2090   -50.0980    -8.2010 ca         1 JXI      -0.112500
      6 C6          33.0750   -49.5500    -8.8260 ca         1 JXI      -0.095500
      7 C7          30.8650   -48.2500    -8.7400 c5         1 JXI       0.148800
      8 C8          29.9390   -49.4460    -9.1240 c5         1 JXI       0.162800
      9 N9          29.4640   -48.9720   -10.4320 nh         1 JXI      -0.764600
     10 C10         30.3020   -47.9690   -10.8750 c2         1 JXI       0.572200
     11 N11         31.1330   -47.5090   -10.0120 n2         1 JXI      -0.613900
     12 C12         30.2080   -47.4480   -12.2970 c3         1 JXI      -0.098700
     13 C13         28.4670   -49.7010   -11.2400 c3         1 JXI       0.200100
     14 C14         29.1450   -46.3300   -12.4650 c3         1 JXI      -0.120700
     15 C15         29.0630   -45.7890   -13.8660 cc         1 JXI       0.530900
     16 N16         29.7540   -44.7100   -14.2280 nd         1 JXI      -0.665300
     17 N17         28.2430   -46.5080   -14.7010 ns         1 JXI      -0.413400
     18 C18         28.0180   -46.2030   -15.9990 c          1 JXI       0.607200
     19 O19         27.2680   -46.8450   -16.7140 o          1 JXI      -0.553000
     20 C20         29.5650   -44.3830   -15.5540 cd         1 JXI       0.393600
     21 C21         28.7630   -45.0380   -16.4110 cc         1 JXI      -0.422400
     22 C22         28.7600   -44.3200   -17.7500 c5         1 JXI       0.211000
     23 N23         29.8400   -43.2580   -17.6600 n7         1 JXI      -0.529200
     24 N24         30.1300   -43.3380   -16.2130 nh         1 JXI      -0.432200
     25 C25         30.5040   -42.0680   -15.5520 c3         1 JXI       0.213100
     26 H26         31.5690   -48.1660    -6.0860 ha         1 JXI       0.113000
     27 H27         33.5730   -49.1330    -4.9860 ha         1 JXI       0.112000
     28 H28         35.2670   -50.3720    -6.3320 ha         1 JXI       0.112000
     29 H29         34.9470   -50.6370    -8.7900 ha         1 JXI       0.112000
     30 H30         32.9470   -49.6730    -9.8990 ha         1 JXI       0.113000
     31 H1          30.3450   -47.5780    -8.0420 h1         1 JXI       0.076700
     32 H31         30.4980   -50.3850    -9.2310 h1         1 JXI       0.053700
     33 H2          29.1250   -49.6000    -8.4020 h1         1 JXI       0.053700
     34 H33         31.1850   -47.0500   -12.5950 hc         1 JXI       0.077200
     35 H32         30.0000   -48.2680   -12.9920 hc         1 JXI       0.077200
     36 H35         27.7250   -49.0080   -11.6560 h1         1 JXI       0.037700
     37 H36         28.9560   -50.2330   -12.0660 h1         1 JXI       0.037700
     38 H34         27.9380   -50.4390   -10.6220 h1         1 JXI       0.037700
     39 H37         28.1630   -46.7040   -12.1500 hc         1 JXI       0.075200
     40 H38         29.3850   -45.5100   -11.7770 hc         1 JXI       0.075200
     41 H39         27.7550   -47.3140   -14.3430 hn         1 JXI       0.328500
     42 H40         28.9460   -45.0120   -18.5830 h1         1 JXI       0.070700
     43 H3          27.7790   -43.8530   -17.9160 h1         1 JXI       0.070700
     44 H4          30.6810   -43.6110   -18.1380 hn         1 JXI       0.379000
     45 H42         30.9960   -41.3900   -16.2600 h1         1 JXI       0.051700
     46 H41         29.6100   -41.5700   -15.1540 h1         1 JXI       0.051700
     47 H43         31.1950   -42.2590   -14.7210 h1         1 JXI       0.051700
@<TRIPOS>BOND
     1     1     2 ar  
     2     1     6 ar  
     3     1     7 1   
     4     2     3 ar  
     5     2    26 1   
     6     3     4 ar  
     7     3    27 1   
     8     4     5 ar  
     9     4    28 1   
    10     5     6 ar  
    11     5    29 1   
    12     6    30 1   
    13     7     8 1   
    14     7    11 1   
    15     7    31 1   
    16     8     9 1   
    17     8    32 1   
    18     8    33 1   
    19     9    10 1   
    20     9    13 1   
    21    10    11 2   
    22    10    12 1   
    23    12    14 1   
    24    12    34 1   
    25    12    35 1   
    26    13    36 1   
    27    13    37 1   
    28    13    38 1   
    29    14    15 1   
    30    14    39 1   
    31    14    40 1   
    32    15    16 2   
    33    15    17 1   
    34    16    20 1   
    35    17    18 1   
    36    17    41 1   
    37    18    19 2   
    38    18    21 1   
    39    20    21 2   
    40    20    24 1   
    41    21    22 1   
    42    22    23 1   
    43    22    42 1   
    44    22    43 1   
    45    23    24 1   
    46    23    44 1   
    47    24    25 1   
    48    25    45 1   
    49    25    46 1   
    50    25    47 1   
@<TRIPOS>SUBSTRUCTURE
     1 JXI         1 TEMP              0 ****  ****    0 ROOT
