@<TRIPOS>MOLECULE
JXJ
   47    48     1     0     0
SMALL
No Charge or Current Charge


@<TRIPOS>ATOM
      1 C14         26.2370     8.3190    46.2180 c          1 JXJ       0.603900
      2 C13         26.6220     9.6520    46.9030 c3         1 JXJ       0.018700
      3 C16         25.3650    10.3940    47.4670 c3         1 JXJ       0.167200
      4 C02         29.2480    11.1990    44.4970 ce         1 JXJ       0.237300
      5 C05         30.3810    10.7510    43.6730 cc         1 JXJ       0.322700
      6 C07         32.3600    10.9940    42.7590 cd         1 JXJ       0.675300
      7 C09         30.4060     9.6150    42.8900 cd         1 JXJ      -0.226000
      8 C23         24.6830     9.5350    48.5630 c3         1 JXJ      -0.100600
      9 C24         25.7410    11.7740    48.0750 c3         1 JXJ      -0.100600
     10 C25         28.6930    14.4550    45.6600 cx         1 JXJ       0.011000
     11 C26         29.9970    15.1850    45.4010 cx         1 JXJ      -0.143900
     12 C27         29.3710    15.2260    46.7740 cx         1 JXJ      -0.143900
     13 C28         27.3650    14.9900    45.0800 c          1 JXJ       0.732000
     14 N03         28.8660    12.4470    44.4790 n2         1 JXJ      -0.199700
     15 N06         31.5080    11.5480    43.5730 nc         1 JXJ      -0.672000
     16 N10         33.5190    11.6300    42.5610 nv         1 JXJ      -1.058900
     17 N12         27.4090    10.4970    45.9750 ns         1 JXJ      -0.447900
     18 N15         24.3540    10.5990    46.4000 n7         1 JXJ      -0.574900
     19 O04         28.7330    13.0360    45.7570 os         1 JXJ      -0.281000
     20 O11         29.1810     9.1130    45.7210 o          1 JXJ      -0.650100
     21 O17         26.5600     7.2140    46.6500 o          1 JXJ      -0.527100
     22 O18         24.7820    11.4940    45.2580 os         1 JXJ      -0.385000
     23 O20         24.1920    12.2190    42.9490 o          1 JXJ      -0.706867
     24 O21         23.4210    10.0120    43.7510 o          1 JXJ      -0.706867
     25 O22         25.8160    10.3940    43.2830 o          1 JXJ      -0.706867
     26 O29         26.4190    15.1410    45.8440 o          1 JXJ      -0.706000
     27 O30         27.3300    15.3160    43.8990 o          1 JXJ      -0.706000
     28 S08         31.9220     9.4730    42.0140 ss         1 JXJ      -0.168400
     29 S19         24.5260    10.9830    43.6760 s6         1 JXJ       1.495300
     30 H1          25.6450     8.4050    45.2820 h4         1 JXJ      -0.019800
     31 H131        27.2760     9.3980    47.7470 h1         1 JXJ       0.064700
     32 H091        29.6290     8.8660    42.7860 h4         1 JXJ       0.195000
     33 H233        25.3850     9.3170    49.3770 hc         1 JXJ       0.039367
     34 H232        23.8220    10.0600    48.9950 hc         1 JXJ       0.039367
     35 H231        24.3220     8.5810    48.1620 hc         1 JXJ       0.039367
     36 H241        26.4770    11.6520    48.8790 hc         1 JXJ       0.039367
     37 H242        26.1710    12.4510    47.3280 hc         1 JXJ       0.039367
     38 H243        24.8590    12.2690    48.5000 hc         1 JXJ       0.039367
     39 H261        30.8950    14.5860    45.2690 hc         1 JXJ       0.059700
     40 H262        29.9620    16.0910    44.8010 hc         1 JXJ       0.059700
     41 H271        28.9160    16.1600    47.0950 hc         1 JXJ       0.059700
     42 H272        29.8480    14.6550    47.5670 hc         1 JXJ       0.059700
     43 H101        33.7380    12.3520    43.2360 hn         1 JXJ       0.464500
     44 H102        34.2960    11.0850    42.2050 hn         1 JXJ       0.464500
     45 H121        26.9910    11.3700    45.6650 hn         1 JXJ       0.377500
     46 H151        23.5100    11.0380    46.7900 hn         1 JXJ       0.394000
     47 C01         28.6490    10.1860    45.4510 c          1 JXJ       0.529800
@<TRIPOS>BOND
     1     1     2 1   
     2     1    21 2   
     3     1    30 1   
     4     2     3 1   
     5     2    17 1   
     6     2    31 1   
     7     3     8 1   
     8     3     9 1   
     9     3    18 1   
    10     4     5 1   
    11     4    14 2   
    12     4    47 1   
    13     5     7 2   
    14     5    15 1   
    15     6    15 2   
    16     6    16 1   
    17     6    28 1   
    18     7    28 1   
    19     7    32 1   
    20     8    33 1   
    21     8    34 1   
    22     8    35 1   
    23     9    36 1   
    24     9    37 1   
    25     9    38 1   
    26    10    11 1   
    27    10    12 1   
    28    10    13 1   
    29    10    19 1   
    30    11    12 1   
    31    11    39 1   
    32    11    40 1   
    33    12    41 1   
    34    12    42 1   
    35    13    26 1   
    36    13    27 1   
    37    14    19 1   
    38    16    43 1   
    39    16    44 1   
    40    17    45 1   
    41    17    47 1   
    42    18    22 1   
    43    18    46 1   
    44    20    47 2   
    45    22    29 1   
    46    23    29 1   
    47    24    29 1   
    48    25    29 1   
@<TRIPOS>SUBSTRUCTURE
     1 JXJ         1 TEMP              0 ****  ****    0 ROOT
