@<TRIPOS>MOLECULE
JXJ
   47    48     1     0     0
SMALL
bcc


@<TRIPOS>ATOM
      1 C14         26.5650     8.3820    46.2170 c          1 JXJ       0.603900
      2 C13         26.7250     9.8020    46.7360 c3         1 JXJ       0.018700
      3 C16         25.3910    10.5200    47.0310 c3         1 JXJ       0.167200
      4 C02         29.6760    11.4950    45.1290 ce         1 JXJ       0.237300
      5 C05         30.2850    10.7930    44.0060 cc         1 JXJ       0.388000
      6 C07         31.5130    10.6640    42.1910 cd         1 JXJ       0.675300
      7 C09         30.0610     9.4790    43.7390 cd         1 JXJ      -0.164400
      8 C23         24.6940     9.8130    48.1970 c3         1 JXJ      -0.100600
      9 C24         25.6520    11.9730    47.4360 c3         1 JXJ      -0.100600
     10 C25         28.9800    14.6170    46.2520 cx         1 JXJ      -0.012200
     11 C26         30.1780    15.4910    46.4600 cx         1 JXJ      -0.143900
     12 C27         29.1670    15.3350    47.5510 cx         1 JXJ      -0.143900
     13 C28         27.8650    15.0550    45.3070 c          1 JXJ       0.942600
     14 N03         29.8000    12.7570    45.2310 n2         1 JXJ      -0.298200
     15 N06         31.1050    11.4570    43.1310 nc         1 JXJ      -0.672000
     16 N10         32.2910    11.0390    41.1540 nv         1 JXJ      -0.948500
     17 N12         27.6270    10.5500    45.9010 ns         1 JXJ      -0.514900
     18 N15         24.4750    10.3780    45.8980 n7         1 JXJ      -0.519700
     19 O04         29.1860    13.2350    46.3480 os         1 JXJ      -0.159300
     20 O11         29.5170    10.1820    47.1060 o          1 JXJ      -0.650100
     21 O17         27.4380     7.8030    45.6270 o          1 JXJ      -0.527100
     22 O18         24.9250    11.1640    44.8160 os         1 JXJ      -0.385000
     23 O20         25.2690    11.3670    42.4600 o          1 JXJ      -0.706867
     24 O21         23.2990    10.1100    43.2510 o          1 JXJ      -0.706867
     25 O22         25.5440     9.1400    43.4830 o          1 JXJ      -0.706867
     26 O29         27.2390    14.1480    44.7280 o          1 JXJ      -0.811300
     27 O30         27.6860    16.2830    45.2170 o          1 JXJ      -0.811300
     28 S08         30.9150     9.0250    42.3150 ss         1 JXJ      -0.313300
     29 S19         24.7350    10.3530    43.3650 s6         1 JXJ       1.495300
     30 H1          25.6250     7.8730    46.4770 h4         1 JXJ      -0.019800
     31 H131        27.2200     9.6860    47.7090 h1         1 JXJ       0.064700
     32 H091        29.4470     8.7700    44.2720 h4         1 JXJ       0.213000
     33 H233        25.3290     9.8320    49.0820 hc         1 JXJ       0.039367
     34 H232        23.7650    10.3280    48.4500 hc         1 JXJ       0.039367
     35 H231        24.4450     8.7740    47.9800 hc         1 JXJ       0.039367
     36 H241        26.3270    12.0120    48.2920 hc         1 JXJ       0.039367
     37 H242        26.0920    12.5710    46.6400 hc         1 JXJ       0.039367
     38 H243        24.7130    12.4450    47.7330 hc         1 JXJ       0.039367
     39 H261        31.1350    15.0020    46.5930 hc         1 JXJ       0.059700
     40 H262        30.2160    16.4230    45.9140 hc         1 JXJ       0.059700
     41 H271        28.4950    16.1550    47.7640 hc         1 JXJ       0.059700
     42 H272        29.4460    14.7420    48.4140 hc         1 JXJ       0.059700
     43 H101        32.7750    11.9170    41.2550 hn         1 JXJ       0.409300
     44 H102        32.7930    10.3370    40.6360 hn         1 JXJ       0.409300
     45 H121        27.2550    10.9860    45.0720 hn         1 JXJ       0.377500
     46 H151        23.5840    10.7920    46.1620 hn         1 JXJ       0.338800
     47 C01         28.9340    10.6730    46.1570 c          1 JXJ       0.596800
@<TRIPOS>BOND
     1     1     2 1   
     2     1    21 2   
     3     1    30 1   
     4     2     3 1   
     5     2    17 1   
     6     2    31 1   
     7     3     8 1   
     8     3     9 1   
     9     3    18 1   
    10     4     5 1   
    11     4    14 2   
    12     4    47 1   
    13     5     7 2   
    14     5    15 1   
    15     6    15 2   
    16     6    16 1   
    17     6    28 1   
    18     7    28 1   
    19     7    32 1   
    20     8    33 1   
    21     8    34 1   
    22     8    35 1   
    23     9    36 1   
    24     9    37 1   
    25     9    38 1   
    26    10    11 1   
    27    10    12 1   
    28    10    13 1   
    29    10    19 1   
    30    11    12 1   
    31    11    39 1   
    32    11    40 1   
    33    12    41 1   
    34    12    42 1   
    35    13    26 1   
    36    13    27 1   
    37    14    19 1   
    38    16    43 1   
    39    16    44 1   
    40    17    45 1   
    41    17    47 1   
    42    18    22 1   
    43    18    46 1   
    44    20    47 2   
    45    22    29 1   
    46    23    29 1   
    47    24    29 1   
    48    25    29 1   
@<TRIPOS>SUBSTRUCTURE
     1 JXJ         1 TEMP              0 ****  ****    0 ROOT
