@<TRIPOS>MOLECULE
JXK
   26    27     1     0     0
SMALL
abcg2


@<TRIPOS>ATOM
      1 C7          -3.3140     0.0590    -0.3180 ca         1 JXK       0.454900
      2 C6          -2.9580    -2.0960     0.4070 ca         1 JXK       0.187900
      3 C5          -1.1980    -0.7890     0.3410 ca         1 JXK       0.132500
      4 C1           1.9470    -1.7510    -0.3420 c3         1 JXK      -0.102400
      5 N3          -1.6570    -2.0050     0.6240 nb         1 JXK      -0.223000
      6 N            3.7800    -3.2080    -1.0430 n8         1 JXK      -0.994200
      7 C            3.1010    -2.6340     0.1080 c3         1 JXK       0.154800
      8 C3           0.0370     0.9680     0.0380 cc         1 JXK       0.350800
      9 C4          -1.9380     0.2830    -0.1270 ca         1 JXK      -0.104600
     10 N1           0.0850    -0.3330     0.4540 na         1 JXK      -0.263300
     11 N2          -1.1390     1.3820    -0.3110 nd         1 JXK      -0.514100
     12 N4          -3.7900    -1.1580    -0.0360 nb         1 JXK      -0.302000
     13 N5          -4.1440     0.9970    -0.7790 nv         1 JXK      -1.056900
     14 BR           1.5520     2.0360     0.0050 br         1 JXK       0.018700
     15 H8          -3.4100    -3.0600     0.6170 h5         1 JXK       0.047100
     16 H4           2.3300    -0.9690    -1.0020 hc         1 JXK       0.064700
     17 H5           1.2320    -2.3410    -0.9250 hc         1 JXK       0.064700
     18 H11          4.5910    -3.7270    -0.7310 hn         1 JXK       0.395500
     19 H1           3.1750    -3.8910    -1.4820 hn         1 JXK       0.395500
     20 H2           3.8200    -2.0270     0.6630 h1         1 JXK       0.028200
     21 H3           2.7220    -3.3850     0.8160 h1         1 JXK       0.028200
     22 H6           0.8500    -1.9130     1.5100 h1         1 JXK       0.072200
     23 H7           1.9040    -0.5150     1.4400 h1         1 JXK       0.072200
     24 H9          -5.1330     0.8170    -0.8110 hn         1 JXK       0.507000
     25 H10         -3.8330     1.9450    -0.8990 hn         1 JXK       0.507000
     26 C2           1.2290    -1.1330     0.8490 c3         1 JXK       0.080600
@<TRIPOS>BOND
     1     1     9 ar  
     2     1    12 ar  
     3     1    13 1   
     4     2     5 ar  
     5     2    12 ar  
     6     2    15 1   
     7     3     5 ar  
     8     3     9 ar  
     9     3    10 1   
    10     4     7 1   
    11     4    16 1   
    12     4    17 1   
    13     4    26 1   
    14     6     7 1   
    15     6    18 1   
    16     6    19 1   
    17     7    20 1   
    18     7    21 1   
    19     8    10 1   
    20     8    11 2   
    21     8    14 1   
    22     9    11 1   
    23    10    26 1   
    24    13    24 1   
    25    13    25 1   
    26    22    26 1   
    27    23    26 1   
@<TRIPOS>SUBSTRUCTURE
     1 JXK         1 TEMP              0 ****  ****    0 ROOT
