@<TRIPOS>MOLECULE
JXK
   26    27     1     0     0
SMALL
No Charge or Current Charge


@<TRIPOS>ATOM
      1 C7          -3.3300     0.0370    -0.3410 ca         1 JXK       0.454900
      2 C6          -3.0540    -2.1290     0.3460 ca         1 JXK       0.187900
      3 C5          -1.1930    -0.8010     0.3090 ca         1 JXK       0.132500
      4 C1           1.9640    -1.7820    -0.3310 c3         1 JXK      -0.102400
      5 N3          -1.7210    -2.0150     0.5630 nb         1 JXK      -0.223000
      6 N            3.8610    -3.2400    -1.0140 n8         1 JXK      -0.994200
      7 C            3.1660    -2.6250     0.1310 c3         1 JXK       0.154800
      8 C3           0.0490     1.0370     0.0080 cc         1 JXK       0.350800
      9 C4          -1.9510     0.2520    -0.1420 ca         1 JXK      -0.104600
     10 N1           0.0750    -0.3020     0.4050 na         1 JXK      -0.263300
     11 N2          -1.1940     1.4160    -0.3360 nd         1 JXK      -0.514100
     12 N4          -3.8900    -1.1580    -0.0940 nb         1 JXK      -0.302000
     13 N5          -4.1690     1.0120    -0.7810 nv         1 JXK      -1.056900
     14 Br           1.5750     2.1500    -0.0420 br         1 JXK       0.018700
     15 H8          -3.4980    -3.1020     0.5470 h5         1 JXK       0.047100
     16 H4           2.3100    -1.0070    -1.0250 hc         1 JXK       0.064700
     17 H5           1.2600    -2.4190    -0.8810 hc         1 JXK       0.064700
     18 H11          4.6220    -3.8350    -0.6630 hn         1 JXK       0.395500
     19 H1           3.2270    -3.9080    -1.4700 hn         1 JXK       0.395500
     20 H2           3.8790    -1.9880     0.6730 h1         1 JXK       0.028200
     21 H3           2.8260    -3.4210     0.8080 h1         1 JXK       0.028200
     22 H6           0.8700    -1.8880     1.5400 h1         1 JXK       0.072200
     23 H7           1.9210    -0.4720     1.3990 h1         1 JXK       0.072200
     24 H9          -5.1660     0.8880    -0.6260 hn         1 JXK       0.507000
     25 H10         -3.8200     1.9680    -0.7610 hn         1 JXK       0.507000
     26 C2           1.2240    -1.1140     0.8450 c3         1 JXK       0.080600
@<TRIPOS>BOND
     1     1     9 ar  
     2     1    12 ar  
     3     1    13 1   
     4     2     5 ar  
     5     2    12 ar  
     6     2    15 1   
     7     3     5 ar  
     8     3     9 ar  
     9     3    10 1   
    10     4     7 1   
    11     4    16 1   
    12     4    17 1   
    13     4    26 1   
    14     6     7 1   
    15     6    18 1   
    16     6    19 1   
    17     7    20 1   
    18     7    21 1   
    19     8    10 1   
    20     8    11 2   
    21     8    14 1   
    22     9    11 1   
    23    10    26 1   
    24    13    24 1   
    25    13    25 1   
    26    22    26 1   
    27    23    26 1   
@<TRIPOS>SUBSTRUCTURE
     1 JXK         1 TEMP              0 ****  ****    0 ROOT
