@<TRIPOS>MOLECULE
JXM
   53    56     1     0     0
SMALL
bcc


@<TRIPOS>ATOM
      1 C1          -2.2380    -5.0530    -0.1390 ca         1 JXM      -0.122000
      2 C2          -3.3000    -4.1610    -0.0760 ca         1 JXM      -0.128500
      3 C3          -0.9560    -4.6150     0.1700 ca         1 JXM      -0.128500
      4 C4          -3.0790    -2.8410     0.2920 ca         1 JXM      -0.116000
      5 C5          -0.7380    -3.2940     0.5360 ca         1 JXM      -0.116000
      6 C6          -1.7980    -2.3930     0.6000 ca         1 JXM      -0.116300
      7 C7           3.0420     1.8820     0.2610 cc         1 JXM      -0.460200
      8 C8           2.5180     0.6570    -0.1080 cd         1 JXM       0.489600
      9 C9           2.1690     2.9540     0.5450 c          1 JXM       0.735700
     10 C10          0.3600     1.4700    -0.0300 cc         1 JXM       0.775800
     11 C11         -1.4200     3.5990    -0.0890 c6         1 JXM      -0.115400
     12 C12         -0.1350     3.7750     0.6710 c6         1 JXM       0.089000
     13 C13          2.7660    -1.5690    -1.1110 c6         1 JXM       0.182300
     14 C14          4.7140    -0.4330    -0.2150 c6         1 JXM       0.182300
     15 C15          3.3440    -2.8710    -0.5940 c6         1 JXM       0.116900
     16 C16          5.2090    -1.7920     0.2520 c6         1 JXM       0.116900
     17 C17         -1.9790     2.2080     0.1680 c6         1 JXM       0.176500
     18 C18         -1.3480    -0.1810    -0.3850 c3         1 JXM       0.178800
     19 C19         -1.5710    -0.9350     0.9350 c3         1 JXM       0.178400
     20 C20         -3.2860     2.0420    -0.6120 c3         1 JXM       0.658900
     21 N21          1.1860     0.4800    -0.2430 nd         1 JXM      -0.805300
     22 N22          3.2690    -0.4500    -0.3290 nh         1 JXM      -0.665400
     23 N23          0.7890     2.6960     0.3550 n          1 JXM      -0.410300
     24 N24         -0.9740     1.2200    -0.2090 nh         1 JXM      -0.746600
     25 O26          4.7520    -2.8380    -0.5720 os         1 JXM      -0.395600
     26 O27         -0.5270    -0.7310     1.8520 oh         1 JXM      -0.593800
     27 F28         -3.0830     1.9160    -1.9260 f          1 JXM      -0.229967
     28 F29         -4.0100     0.9870    -0.2120 f          1 JXM      -0.229967
     29 F30         -4.0690     3.1090    -0.4290 f          1 JXM      -0.229967
     30 H1          -2.4080    -6.0840    -0.4210 ha         1 JXM       0.132000
     31 H2          -4.3040    -4.4940    -0.3080 ha         1 JXM       0.132000
     32 H3          -0.1240    -5.3060     0.1280 ha         1 JXM       0.132000
     33 H4          -3.9140    -2.1520     0.3440 ha         1 JXM       0.131500
     34 H5           0.2690    -2.9800     0.7850 ha         1 JXM       0.131500
     35 H19         -2.4750    -0.5540     1.4210 h1         1 JXM       0.074700
     36 H7           4.0990     2.0710     0.3600 ha         1 JXM       0.165000
     37 H111        -2.1190     4.3590     0.2510 hc         1 JXM       0.082700
     38 H112        -1.2470     3.7480    -1.1570 hc         1 JXM       0.082700
     39 H121         0.3280     4.7180     0.3960 h1         1 JXM       0.079700
     40 H122        -0.3180     3.7960     1.7480 h1         1 JXM       0.079700
     41 H17         -2.2400     2.1130     1.2300 h1         1 JXM       0.085700
     42 H132         1.6820    -1.6040    -1.0560 h1         1 JXM       0.061700
     43 H151         2.9500    -3.0760     0.4130 h1         1 JXM       0.055200
     44 H152         3.0420    -3.6900    -1.2480 h1         1 JXM       0.055200
     45 H141         5.0290     0.3010     0.5240 h1         1 JXM       0.061700
     46 H142         5.1760    -0.1630    -1.1720 h1         1 JXM       0.061700
     47 H161         6.2990    -1.8070     0.2330 h1         1 JXM       0.055200
     48 H162         4.8850    -1.9520     1.2900 h1         1 JXM       0.055200
     49 H181        -0.5600    -0.6640    -0.9550 h1         1 JXM       0.084700
     50 H182        -2.2350    -0.2670    -1.0040 h1         1 JXM       0.084700
     51 H27          0.3110    -0.7110     1.3740 ho         1 JXM       0.424000
     52 O25          2.5030     4.0720     0.9280 o          1 JXM      -0.641500
     53 H131         3.0360    -1.4360    -2.1660 h1         1 JXM       0.061700
@<TRIPOS>BOND
     1     1     2 ar  
     2     1     3 ar  
     3     1    30 1   
     4     2     4 ar  
     5     2    31 1   
     6     3     5 ar  
     7     3    32 1   
     8     4     6 ar  
     9     4    33 1   
    10     5     6 ar  
    11     5    34 1   
    12     6    19 1   
    13     7     8 2   
    14     7     9 1   
    15     7    36 1   
    16     8    21 1   
    17     8    22 1   
    18     9    23 1   
    19     9    52 2   
    20    10    21 2   
    21    10    23 1   
    22    10    24 1   
    23    11    12 1   
    24    11    17 1   
    25    11    37 1   
    26    11    38 1   
    27    12    23 1   
    28    12    39 1   
    29    12    40 1   
    30    13    15 1   
    31    13    22 1   
    32    13    42 1   
    33    13    53 1   
    34    14    16 1   
    35    14    22 1   
    36    14    45 1   
    37    14    46 1   
    38    15    25 1   
    39    15    43 1   
    40    15    44 1   
    41    16    25 1   
    42    16    47 1   
    43    16    48 1   
    44    17    20 1   
    45    17    24 1   
    46    17    41 1   
    47    18    19 1   
    48    18    24 1   
    49    18    49 1   
    50    18    50 1   
    51    19    26 1   
    52    19    35 1   
    53    20    27 1   
    54    20    28 1   
    55    20    29 1   
    56    26    51 1   
@<TRIPOS>SUBSTRUCTURE
     1 JXM         1 TEMP              0 ****  ****    0 ROOT
