@<TRIPOS>MOLECULE
JXM
   53    56     1     0     0
SMALL
No Charge or Current Charge


@<TRIPOS>ATOM
      1 C1          -3.2410    -4.9790    -0.6510 ca         1 JXM      -0.104000
      2 C2          -3.8010    -4.2050     0.3790 ca         1 JXM      -0.110500
      3 C3          -2.0470    -4.5680    -1.2660 ca         1 JXM      -0.110500
      4 C4          -3.1690    -3.0200     0.7940 ca         1 JXM      -0.098000
      5 C5          -1.4140    -3.3820    -0.8530 ca         1 JXM      -0.098000
      6 C6          -1.9700    -2.5990     0.1810 ca         1 JXM      -0.116300
      7 C7           3.0860     2.0680     0.0870 cc         1 JXM      -0.510200
      8 C8           2.6880     0.7760     0.0050 cd         1 JXM       0.489600
      9 C9           2.1800     3.1780     0.0630 c          1 JXM       0.593200
     10 C10          0.5130     1.4830    -0.0840 cc         1 JXM       0.775800
     11 C11         -1.5590     3.4560    -0.4360 c6         1 JXM      -0.115400
     12 C12         -0.1440     3.9300    -0.0940 c6         1 JXM       0.089000
     13 C13          3.2500    -1.5810    -0.7160 c6         1 JXM       0.182300
     14 C14          4.9670    -0.1870     0.4920 c6         1 JXM       0.182300
     15 C15          3.8600    -2.8320    -0.0230 c6         1 JXM       0.140100
     16 C16          5.5070    -1.5050     1.1210 c6         1 JXM       0.140100
     17 C17         -1.8720     2.1610     0.3320 c6         1 JXM       0.176500
     18 C18         -1.2730    -0.2380    -0.5160 c3         1 JXM       0.178800
     19 C19         -1.2970    -1.3010     0.6270 c3         1 JXM       0.201600
     20 C20         -3.4090     1.7940     0.2060 c3         1 JXM       0.295000
     21 N21          1.3590     0.4680    -0.0640 nd         1 JXM      -0.805300
     22 N22          3.5430    -0.3170     0.0440 nh         1 JXM      -0.665400
     23 N23          0.8510     2.8290    -0.0560 n          1 JXM      -0.343300
     24 N24         -0.8390     1.1460    -0.1070 nh         1 JXM      -0.746600
     25 O26          5.2660    -2.6320     0.2480 os         1 JXM      -0.442000
     26 O27          0.0320    -1.5780     1.0850 oh         1 JXM      -0.656000
     27 F28         -3.7960     1.6140    -1.0790 f          1 JXM      -0.108667
     28 F29         -3.7370     0.6770     0.8940 f          1 JXM      -0.108667
     29 F30         -4.1840     2.7840     0.7080 f          1 JXM      -0.108667
     30 H1          -3.7300    -5.8970    -0.9710 ha         1 JXM       0.114000
     31 H2          -4.7250    -4.5230     0.8560 ha         1 JXM       0.114000
     32 H3          -1.6110    -5.1670    -2.0620 ha         1 JXM       0.114000
     33 H4          -3.6150    -2.4280     1.5910 ha         1 JXM       0.113500
     34 H5          -0.4880    -3.0760    -1.3340 ha         1 JXM       0.113500
     35 H19         -1.8790    -0.8790     1.4570 h1         1 JXM       0.074700
     36 H7           4.1280     2.3420     0.1540 ha         1 JXM       0.215000
     37 H111        -2.2760     4.2520    -0.1960 hc         1 JXM       0.082700
     38 H112        -1.6370     3.2740    -1.5170 hc         1 JXM       0.082700
     39 H121         0.1670     4.6920    -0.8240 h1         1 JXM       0.079700
     40 H122        -0.1590     4.4130     0.8940 h1         1 JXM       0.079700
     41 H17         -1.7130     2.3650     1.4030 h1         1 JXM       0.085700
     42 H132         2.1710    -1.7520    -0.8330 h1         1 JXM       0.061700
     43 H151         3.3320    -3.0290     0.9220 h1         1 JXM       0.055200
     44 H152         3.7380    -3.7120    -0.6690 h1         1 JXM       0.055200
     45 H141         5.0660     0.6090     1.2440 h1         1 JXM       0.061700
     46 H142         5.6030     0.0900    -0.3610 h1         1 JXM       0.061700
     47 H161         6.5870    -1.4140     1.3050 h1         1 JXM       0.055200
     48 H162         5.0130    -1.6850     2.0870 h1         1 JXM       0.055200
     49 H181        -0.6130    -0.6100    -1.3110 h1         1 JXM       0.084700
     50 H182        -2.2630    -0.2230    -0.9820 h1         1 JXM       0.084700
     51 H27          0.5890    -0.8330     0.7160 ho         1 JXM       0.463000
     52 O25          2.5690     4.3340     0.1350 o          1 JXM      -0.566000
     53 H131         3.6670    -1.5040    -1.7300 h1         1 JXM       0.061700
@<TRIPOS>BOND
     1     1     2 ar  
     2     1     3 ar  
     3     1    30 1   
     4     2     4 ar  
     5     2    31 1   
     6     3     5 ar  
     7     3    32 1   
     8     4     6 ar  
     9     4    33 1   
    10     5     6 ar  
    11     5    34 1   
    12     6    19 1   
    13     7     8 2   
    14     7     9 1   
    15     7    36 1   
    16     8    21 1   
    17     8    22 1   
    18     9    23 1   
    19     9    52 2   
    20    10    21 2   
    21    10    23 1   
    22    10    24 1   
    23    11    12 1   
    24    11    17 1   
    25    11    37 1   
    26    11    38 1   
    27    12    23 1   
    28    12    39 1   
    29    12    40 1   
    30    13    15 1   
    31    13    22 1   
    32    13    42 1   
    33    13    53 1   
    34    14    16 1   
    35    14    22 1   
    36    14    45 1   
    37    14    46 1   
    38    15    25 1   
    39    15    43 1   
    40    15    44 1   
    41    16    25 1   
    42    16    47 1   
    43    16    48 1   
    44    17    20 1   
    45    17    24 1   
    46    17    41 1   
    47    18    19 1   
    48    18    24 1   
    49    18    49 1   
    50    18    50 1   
    51    19    26 1   
    52    19    35 1   
    53    20    27 1   
    54    20    28 1   
    55    20    29 1   
    56    26    51 1   
@<TRIPOS>SUBSTRUCTURE
     1 JXM         1 TEMP              0 ****  ****    0 ROOT
