@<TRIPOS>MOLECULE
JXN
   21    22     1     0     0
SMALL
No Charge or Current Charge


@<TRIPOS>ATOM
      1 C2           3.4530     1.1200     0.2450 ca         1 JXN       0.188900
      2 C4           1.1960     0.7560     0.2300 ca         1 JXN       0.134500
      3 C5           1.4120    -0.5900     0.0580 ca         1 JXN      -0.106600
      4 C6           2.7460    -1.0410    -0.0140 ca         1 JXN       0.457900
      5 C8          -0.7300    -0.3770     0.0990 cc         1 JXN       0.349800
      6 CAA         -1.1560     2.8600    -0.9290 c3         1 JXN      -0.113100
      7 N1           3.7760    -0.1860     0.0760 nb         1 JXN      -0.304000
      8 N3           2.2060     1.6430     0.3270 nb         1 JXN      -0.223000
      9 N6           3.0690    -2.3510    -0.1870 nv         1 JXN      -1.061900
     10 N7           0.2190    -1.3210    -0.0280 nd         1 JXN      -0.515100
     11 N9          -0.1630     0.8890     0.2600 na         1 JXN      -0.265300
     12 Br8         -2.5910    -0.7000     0.0570 br         1 JXN       0.014700
     13 H1           4.2820     1.8220     0.3200 h5         1 JXN       0.047100
     14 H2          -0.2360     3.0400    -1.4990 hc         1 JXN       0.050700
     15 H3          -1.8180     2.2250    -1.5300 hc         1 JXN       0.050700
     16 H4          -1.6550     3.8230    -0.7680 hc         1 JXN       0.050700
     17 H5          -0.1950     2.8570     1.0120 h1         1 JXN       0.072700
     18 H6          -1.7660     2.0450     0.9830 h1         1 JXN       0.072700
     19 H7           4.0040    -2.5690    -0.5220 hn         1 JXN       0.509000
     20 H8           2.3230    -2.9760    -0.4810 hn         1 JXN       0.509000
     21 CAE         -0.8360     2.1910     0.4190 c3         1 JXN       0.081600
@<TRIPOS>BOND
     1     1     7 ar  
     2     1     8 ar  
     3     1    13 1   
     4     2     3 ar  
     5     2     8 ar  
     6     2    11 1   
     7     3     4 ar  
     8     3    10 1   
     9     4     7 ar  
    10     4     9 1   
    11     5    10 2   
    12     5    11 1   
    13     5    12 1   
    14     6    14 1   
    15     6    15 1   
    16     6    16 1   
    17     6    21 1   
    18     9    19 1   
    19     9    20 1   
    20    11    21 1   
    21    17    21 1   
    22    18    21 1   
@<TRIPOS>SUBSTRUCTURE
     1 JXN         1 TEMP              0 ****  ****    0 ROOT
