@<TRIPOS>MOLECULE
JXN
   21    22     1     0     0
SMALL
abcg2


@<TRIPOS>ATOM
      1 C2           3.3760     1.1240     0.2660 ca         1 JXN       0.188900
      2 C4           1.2160     0.7390     0.2210 ca         1 JXN       0.134500
      3 C5           1.4040    -0.6160     0.0000 ca         1 JXN      -0.106600
      4 C6           2.7360    -1.0590    -0.0840 ca         1 JXN       0.457900
      5 C8          -0.6700    -0.3200     0.0670 cc         1 JXN       0.349800
      6 CAA         -1.1720     2.8220    -0.9190 c3         1 JXN      -0.113100
      7 N1           3.7050    -0.1480     0.0560 nb         1 JXN      -0.304000
      8 N3           2.1690     1.6560     0.3590 nb         1 JXN      -0.223000
      9 N6           3.0620    -2.3350    -0.2900 nv         1 JXN      -1.061900
     10 N7           0.2000    -1.2640    -0.0930 nd         1 JXN      -0.515100
     11 N9          -0.1370     0.9210     0.2710 na         1 JXN      -0.265300
     12 BR8         -2.5030    -0.6020     0.0450 br         1 JXN       0.014700
     13 H1           4.2090     1.8090     0.3720 h5         1 JXN       0.047100
     14 H2          -0.2800     2.9990    -1.5200 hc         1 JXN       0.050700
     15 H3          -1.8520     2.1890    -1.4880 hc         1 JXN       0.050700
     16 H4          -1.6630     3.7810    -0.7540 hc         1 JXN       0.050700
     17 H5          -0.1350     2.8470     0.9730 h1         1 JXN       0.072700
     18 H6          -1.6950     2.0580     1.0420 h1         1 JXN       0.072700
     19 H7           4.0270    -2.6050    -0.3760 hn         1 JXN       0.509000
     20 H8           2.3560    -3.0350    -0.4400 hn         1 JXN       0.509000
     21 CAE         -0.8130     2.2000     0.4190 c3         1 JXN       0.081600
@<TRIPOS>BOND
     1     1     7 ar  
     2     1     8 ar  
     3     1    13 1   
     4     2     3 ar  
     5     2     8 ar  
     6     2    11 1   
     7     3     4 ar  
     8     3    10 1   
     9     4     7 ar  
    10     4     9 1   
    11     5    10 2   
    12     5    11 1   
    13     5    12 1   
    14     6    14 1   
    15     6    15 1   
    16     6    16 1   
    17     6    21 1   
    18     9    19 1   
    19     9    20 1   
    20    11    21 1   
    21    17    21 1   
    22    18    21 1   
@<TRIPOS>SUBSTRUCTURE
     1 JXN         1 TEMP              0 ****  ****    0 ROOT
