@<TRIPOS>MOLECULE
JXO
   18    19     1     0     0
SMALL
abcg2


@<TRIPOS>ATOM
      1 C1          91.5680    -8.2070    14.9790 ca         1 JXO       0.170000
      2 C2          91.0040    -9.4660    14.6810 ca         1 JXO       0.290000
      3 C3          91.1720    -7.4970    16.1240 ca         1 JXO      -0.045000
      4 N4          92.5070    -7.6650    14.1520 nb         1 JXO      -0.596000
      5 N5          91.3670   -10.1650    13.5810 nb         1 JXO      -0.739000
      6 C6          90.0350    -9.9920    15.5600 ca         1 JXO      -0.092000
      7 C7          90.2260    -8.0420    16.9510 ca         1 JXO       0.099000
      8 C8          92.8460    -8.3420    13.1080 ca         1 JXO       0.265900
      9 C9          92.2700    -9.6280    12.8000 ca         1 JXO       0.579900
     10 C10         89.6520    -9.2940    16.6760 ca         1 JXO      -0.081000
     11 CL11        89.7150    -7.1820    18.3660 cl         1 JXO      -0.198000
     12 N12         92.6960   -10.2870    11.7080 nv         1 JXO      -1.076900
     13 H13         91.6200    -6.5330    16.3280 ha         1 JXO       0.144000
     14 H14         89.5970   -10.9570    15.3400 ha         1 JXO       0.135000
     15 H15         93.5940    -7.9170    12.4440 h4         1 JXO       0.026100
     16 H16         88.9070    -9.7050    17.3450 ha         1 JXO       0.131000
     17 H17         92.2050   -11.1140    11.4120 hn         1 JXO       0.492500
     18 H18         93.2500    -9.8170    11.0130 hn         1 JXO       0.492500
@<TRIPOS>BOND
     1     1     2 ar  
     2     1     3 ar  
     3     1     4 ar  
     4     2     5 ar  
     5     2     6 ar  
     6     3     7 ar  
     7     3    13 1   
     8     4     8 ar  
     9     5     9 ar  
    10     6    10 ar  
    11     6    14 1   
    12     7    10 ar  
    13     7    11 1   
    14     8     9 ar  
    15     8    15 1   
    16     9    12 1   
    17    10    16 1   
    18    12    17 1   
    19    12    18 1   
@<TRIPOS>SUBSTRUCTURE
     1 JXO         1 TEMP              0 ****  ****    0 ROOT
