@<TRIPOS>MOLECULE
JXO
   18    19     1     0     0
SMALL
No Charge or Current Charge


@<TRIPOS>ATOM
      1 C1          91.6090    -8.1630    14.9740 ca         1 JXO       0.170000
      2 C2          91.0530    -9.4560    14.6580 ca         1 JXO       0.290000
      3 C3          91.1590    -7.4890    16.1250 ca         1 JXO      -0.045000
      4 N4          92.5550    -7.5790    14.1870 nb         1 JXO      -0.596000
      5 N5          91.4440   -10.1610    13.5590 nb         1 JXO      -0.739000
      6 C6          90.0770   -10.0050    15.5120 ca         1 JXO      -0.092000
      7 C7          90.1860    -8.0580    16.9600 ca         1 JXO       0.099000
      8 C8          92.9370    -8.2940    13.0930 ca         1 JXO       0.265900
      9 C9          92.3740    -9.5760    12.8000 ca         1 JXO       0.579900
     10 C10         89.6440    -9.3140    16.6560 ca         1 JXO      -0.081000
     11 Cl11        89.6430    -7.1930    18.3920 cl         1 JXO      -0.198000
     12 N12         92.6690   -10.3700    11.7450 nv         1 JXO      -1.076900
     13 H13         91.5710    -6.5150    16.3720 ha         1 JXO       0.144000
     14 H14         89.6540   -10.9790    15.2810 ha         1 JXO       0.135000
     15 H15         93.6920    -7.8460    12.4480 h4         1 JXO       0.026100
     16 H16         88.8900    -9.7530    17.3050 ha         1 JXO       0.131000
     17 H17         92.0070   -11.1220    11.5850 hn         1 JXO       0.492500
     18 H18         93.0670    -9.9370    10.9160 hn         1 JXO       0.492500
@<TRIPOS>BOND
     1     1     2 ar  
     2     1     3 ar  
     3     1     4 ar  
     4     2     5 ar  
     5     2     6 ar  
     6     3     7 ar  
     7     3    13 1   
     8     4     8 ar  
     9     5     9 ar  
    10     6    10 ar  
    11     6    14 1   
    12     7    10 ar  
    13     7    11 1   
    14     8     9 ar  
    15     8    15 1   
    16     9    12 1   
    17    10    16 1   
    18    12    17 1   
    19    12    18 1   
@<TRIPOS>SUBSTRUCTURE
     1 JXO         1 TEMP              0 ****  ****    0 ROOT
