@<TRIPOS>MOLECULE
JXP
   39    42     1     0     0
SMALL
bcc


@<TRIPOS>ATOM
      1 C13         -3.6750    -0.2760     0.0550 cp         1 JXP      -0.013000
      2 C18         -3.3240    -1.4510     0.7200 ca         1 JXP      -0.163000
      3 C17         -4.1700    -2.5400     0.6560 ca         1 JXP       0.137900
      4 C16         -5.3600    -2.5180    -0.0450 ca         1 JXP      -0.163000
      5 C15         -5.7040    -1.3450    -0.7040 ca         1 JXP      -0.101000
      6 C11         -2.4760     3.2880     0.2480 ca         1 JXP      -0.117000
      7 C12         -1.1050     3.1030     0.1980 ca         1 JXP       0.031400
      8 F           -3.8250    -3.6600     1.3100 f          1 JXP      -0.140900
      9 O            1.2790     0.3160    -0.0390 os         1 JXP      -0.318900
     10 CL          -0.0720     4.4950     0.2580 cl         1 JXP      -0.109400
     11 C1           3.6450     0.8190    -0.0330 ca         1 JXP      -0.385300
     12 N1           5.2630    -0.9960    -0.1290 nb         1 JXP      -0.706000
     13 C2           4.9780     0.2900    -0.0640 ca         1 JXP       0.697200
     14 N2           2.1750    -2.5510    -0.1730 na         1 JXP       0.016900
     15 C3           4.1970    -1.8030    -0.1560 ca         1 JXP       0.554300
     16 N3           2.9950    -3.5800    -0.2270 nc         1 JXP      -0.152400
     17 C4           2.8720    -1.3960    -0.1270 ca         1 JXP      -0.275500
     18 N4           4.2120    -3.1620    -0.2180 nd         1 JXP      -0.306000
     19 C5           2.5640    -0.0250    -0.0630 ca         1 JXP       0.231100
     20 C7          -0.5410     1.8340     0.1010 ca         1 JXP      -0.084300
     21 C8          -1.4020     0.7450     0.0560 ca         1 JXP      -0.085000
     22 C9          -2.7870     0.9020     0.1050 cp         1 JXP      -0.034000
     23 C10         -3.3130     2.1870     0.2020 ca         1 JXP      -0.102000
     24 C14         -4.8750    -0.2350    -0.6570 ca         1 JXP      -0.134000
     25 H1          -2.4130    -1.5120     1.3030 ha         1 JXP       0.151000
     26 H2          -5.9990    -3.3900    -0.0780 ha         1 JXP       0.154000
     27 H3          -6.6270    -1.3030    -1.2670 ha         1 JXP       0.139000
     28 H4          -2.8880     4.2850     0.3340 ha         1 JXP       0.153000
     29 H5           3.5240     1.8920     0.0190 ha         1 JXP       0.146000
     30 H6           1.1770    -2.7040    -0.1710 hn         1 JXP       0.337700
     31 H7           5.8470     2.1350    -0.1910 hn         1 JXP       0.426300
     32 H8           6.9270     0.8250    -0.2180 hn         1 JXP       0.426300
     33 H9           1.4070     2.1320     0.9350 h1         1 JXP       0.060700
     34 H10          1.3490     2.2220    -0.8300 h1         1 JXP       0.060700
     35 H11         -0.9910    -0.2500    -0.0430 ha         1 JXP       0.149000
     36 H12         -4.3830     2.3380     0.2620 ha         1 JXP       0.143000
     37 H13         -5.1540     0.6610    -1.1960 ha         1 JXP       0.138000
     38 C6           0.9520     1.6890     0.0420 c3         1 JXP       0.188700
     39 N5           6.0110     1.1660     0.0190 nv         1 JXP      -0.954500
@<TRIPOS>BOND
     1     1     2 ar  
     2     1    22 1   
     3     1    24 ar  
     4     2     3 ar  
     5     2    25 1   
     6     3     4 ar  
     7     3     8 1   
     8     4     5 ar  
     9     4    26 1   
    10     5    24 ar  
    11     5    27 1   
    12     6     7 ar  
    13     6    23 ar  
    14     6    28 1   
    15     7    10 1   
    16     7    20 ar  
    17     9    19 1   
    18     9    38 1   
    19    11    13 ar  
    20    11    19 ar  
    21    11    29 1   
    22    12    13 ar  
    23    12    15 ar  
    24    13    39 1   
    25    14    16 1   
    26    14    17 1   
    27    14    30 1   
    28    15    17 ar  
    29    15    18 1   
    30    16    18 2   
    31    17    19 ar  
    32    20    21 ar  
    33    20    38 1   
    34    21    22 ar  
    35    21    35 1   
    36    22    23 ar  
    37    23    36 1   
    38    24    37 1   
    39    31    39 1   
    40    32    39 1   
    41    33    38 1   
    42    34    38 1   
@<TRIPOS>SUBSTRUCTURE
     1 JXP         1 TEMP              0 ****  ****    0 ROOT
