@<TRIPOS>MOLECULE
JXP
   39    42     1     0     0
SMALL
No Charge or Current Charge


@<TRIPOS>ATOM
      1 C13         -3.9960    -0.3030     0.5140 cp         1 JXP      -0.013000
      2 C18         -3.9580    -0.8380     1.8270 ca         1 JXP      -0.145000
      3 C17         -4.9570    -1.7140     2.2780 ca         1 JXP       0.173000
      4 C16         -6.0160    -2.0800     1.4340 ca         1 JXP      -0.145000
      5 C15         -6.0750    -1.5640     0.1290 ca         1 JXP      -0.083000
      6 C11         -2.2440     2.5760    -1.3050 ca         1 JXP      -0.099000
      7 C12         -0.9120     2.4060    -0.8940 ca         1 JXP       0.123000
      8 F           -4.9010    -2.2060     3.5340 f          1 JXP      -0.176000
      9 O            1.5700     0.4280    -0.5930 os         1 JXP      -0.342100
     10 Cl           0.3070     3.5280    -1.5000 cl         1 JXP      -0.201000
     11 C1           3.6850     0.4140     0.6560 ca         1 JXP      -0.302000
     12 N1           5.6340    -0.6250    -0.3510 nb         1 JXP      -0.706000
     13 C2           5.0260     0.0180     0.6400 ca         1 JXP       0.631900
     14 N2           3.0820    -1.0080    -2.7030 na         1 JXP      -0.033400
     15 C3           4.8670    -0.9110    -1.4180 ca         1 JXP       0.489000
     16 N3           4.1280    -1.6250    -3.3720 nc         1 JXP      -0.152400
     17 C4           3.5520    -0.5720    -1.4970 ca         1 JXP      -0.210200
     18 N4           5.2120    -1.5670    -2.5940 nd         1 JXP      -0.306000
     19 C5           2.9020     0.1040    -0.4680 ca         1 JXP       0.231100
     20 C7          -0.5710     1.3530    -0.0180 ca         1 JXP      -0.084300
     21 C8          -1.5810     0.4780     0.4310 ca         1 JXP      -0.067000
     22 C9          -2.9320     0.6330     0.0280 cp         1 JXP      -0.034000
     23 C10         -3.2430     1.7000    -0.8490 ca         1 JXP      -0.084000
     24 C14         -5.0750    -0.6850    -0.3240 ca         1 JXP      -0.116000
     25 H1          -3.1590    -0.5620     2.5080 ha         1 JXP       0.133000
     26 H2          -6.7850    -2.7590     1.7910 ha         1 JXP       0.136000
     27 H3          -6.8930    -1.8460    -0.5320 ha         1 JXP       0.121000
     28 H4          -2.5020     3.3900    -1.9770 ha         1 JXP       0.135000
     29 H5           3.2830     0.9360     1.5170 ha         1 JXP       0.128000
     30 H6           2.1470    -0.9250    -3.0950 hn         1 JXP       0.388000
     31 H7           5.6200     1.0230     2.2770 hn         1 JXP       0.481500
     32 H8           6.8460     0.1510     1.4340 hn         1 JXP       0.481500
     33 H9           0.8730     0.5630     1.3740 h1         1 JXP       0.060700
     34 H10          1.3420     2.1070     0.6430 h1         1 JXP       0.060700
     35 H11         -1.3120    -0.3440     1.0900 ha         1 JXP       0.131000
     36 H12         -4.2690     1.8600    -1.1700 ha         1 JXP       0.125000
     37 H13         -5.1320    -0.3070    -1.3420 ha         1 JXP       0.120000
     38 C6           0.8670     1.1390     0.4400 c3         1 JXP       0.211900
     39 N5           5.8620     0.2640     1.6490 nv         1 JXP      -1.064900
@<TRIPOS>BOND
     1     1     2 ar  
     2     1    22 1   
     3     1    24 ar  
     4     2     3 ar  
     5     2    25 1   
     6     3     4 ar  
     7     3     8 1   
     8     4     5 ar  
     9     4    26 1   
    10     5    24 ar  
    11     5    27 1   
    12     6     7 ar  
    13     6    23 ar  
    14     6    28 1   
    15     7    10 1   
    16     7    20 ar  
    17     9    19 1   
    18     9    38 1   
    19    11    13 ar  
    20    11    19 ar  
    21    11    29 1   
    22    12    13 ar  
    23    12    15 ar  
    24    13    39 1   
    25    14    16 1   
    26    14    17 1   
    27    14    30 1   
    28    15    17 ar  
    29    15    18 1   
    30    16    18 2   
    31    17    19 ar  
    32    20    21 ar  
    33    20    38 1   
    34    21    22 ar  
    35    21    35 1   
    36    22    23 ar  
    37    23    36 1   
    38    24    37 1   
    39    31    39 1   
    40    32    39 1   
    41    33    38 1   
    42    34    38 1   
@<TRIPOS>SUBSTRUCTURE
     1 JXP         1 TEMP              0 ****  ****    0 ROOT
