@<TRIPOS>MOLECULE
JXQ
   29    30     1     0     0
SMALL
No Charge or Current Charge


@<TRIPOS>ATOM
      1 C5           2.4460    -0.5110    -0.0850 ca         1 JXQ      -0.101600
      2 C6           3.5680     0.3040    -0.3450 ca         1 JXQ       0.451900
      3 C2           2.3350     2.1330     0.2670 ca         1 JXQ       0.180900
      4 C4           1.2960     0.0990     0.3530 ca         1 JXQ       0.120500
      5 C8           1.0320    -2.1210     0.1770 cc         1 JXQ       0.400700
      6 C9B         -1.9360    -0.3390    -0.1800 c3         1 JXQ      -0.100400
      7 C9C         -3.3900    -0.1210     0.2920 c3         1 JXQ      -0.071400
      8 C9D         -4.3490     0.2570    -0.8590 c3         1 JXQ       0.007700
      9 C9E         -5.7290     0.4630    -0.3990 c1         1 JXQ      -0.147100
     10 C9F         -6.8570     0.6270     0.0070 c1         1 JXQ      -0.244000
     11 N1           3.5180     1.6340    -0.1670 nb         1 JXQ      -0.304000
     12 N3           1.2090     1.4310     0.5390 nb         1 JXQ      -0.221000
     13 N6           4.7550    -0.1980    -0.7780 nv         1 JXQ      -1.066900
     14 N7           2.3070    -1.9020    -0.2010 nd         1 JXQ      -0.551100
     15 N9           0.4040    -0.9220     0.5160 na         1 JXQ      -0.278300
     16 H1           2.2840     3.2110     0.4130 h5         1 JXQ       0.045100
     17 H2           0.5270    -3.0790     0.2240 h5         1 JXQ       0.064800
     18 H3          -0.9900     0.0800     1.7300 h1         1 JXQ       0.063200
     19 H4          -1.3330    -1.6360     1.4520 h1         1 JXQ       0.063200
     20 H5          -1.5710     0.5750    -0.6650 hc         1 JXQ       0.058700
     21 H6          -1.9140    -1.1340    -0.9360 hc         1 JXQ       0.058700
     22 H7          -3.7510    -1.0370     0.7780 hc         1 JXQ       0.047700
     23 H8          -3.4060     0.6720     1.0510 hc         1 JXQ       0.047700
     24 H9          -3.9960     1.1750    -1.3460 hc         1 JXQ       0.058700
     25 H10         -4.3420    -0.5340    -1.6200 hc         1 JXQ       0.058700
     26 H11         -7.8520     0.7710     0.3800 ha         1 JXQ       0.255000
     27 H12          5.5850     0.3760    -0.6590 hn         1 JXQ       0.507000
     28 H13          4.8820    -1.2050    -0.7060 hn         1 JXQ       0.507000
     29 C9A         -0.9800    -0.7140     0.9720 c3         1 JXQ       0.087600
@<TRIPOS>BOND
     1     1     2 ar  
     2     1     4 ar  
     3     1    14 1   
     4     2    11 ar  
     5     2    13 1   
     6     3    11 ar  
     7     3    12 ar  
     8     3    16 1   
     9     4    12 ar  
    10     4    15 1   
    11     5    14 2   
    12     5    15 1   
    13     5    17 1   
    14     6     7 1   
    15     6    20 1   
    16     6    21 1   
    17     6    29 1   
    18     7     8 1   
    19     7    22 1   
    20     7    23 1   
    21     8     9 1   
    22     8    24 1   
    23     8    25 1   
    24     9    10 3   
    25    10    26 1   
    26    13    27 1   
    27    13    28 1   
    28    15    29 1   
    29    18    29 1   
    30    19    29 1   
@<TRIPOS>SUBSTRUCTURE
     1 JXQ         1 TEMP              0 ****  ****    0 ROOT
