@<TRIPOS>MOLECULE
JXQ
   29    30     1     0     0
SMALL
bcc


@<TRIPOS>ATOM
      1 C5           2.4390    -0.5550    -0.0390 ca         1 JXQ      -0.232200
      2 C6           3.5300     0.2830    -0.3360 ca         1 JXQ       0.780200
      3 C2           2.1790     2.0700     0.1940 ca         1 JXQ       0.706900
      4 C4           1.2730     0.0780     0.3670 ca         1 JXQ       0.448800
      5 C8           1.0370    -2.0870     0.3130 cc         1 JXQ       0.400700
      6 C9B         -1.8920    -0.3020    -0.1440 c3         1 JXQ      -0.100400
      7 C9C         -3.3380    -0.1510     0.3050 c3         1 JXQ      -0.071400
      8 C9D         -4.2320     0.3450    -0.8350 c3         1 JXQ       0.007700
      9 C9E         -5.6220     0.5050    -0.4280 c1         1 JXQ      -0.147100
     10 C9F         -6.7630     0.6370    -0.0690 c1         1 JXQ      -0.156500
     11 N1           3.3600     1.6040    -0.2090 nb         1 JXQ      -0.830000
     12 N3           1.0890     1.3910     0.5020 nb         1 JXQ      -0.747000
     13 N6           4.7130    -0.1870    -0.7370 nv         1 JXQ      -0.956500
     14 N7           2.2710    -1.9140    -0.0660 nd         1 JXQ      -0.551100
     15 N9           0.3800    -0.9260     0.5940 na         1 JXQ      -0.249000
     16 H1           2.1110     3.1500     0.2760 h5         1 JXQ       0.045100
     17 H2           0.5440    -3.0430     0.4140 h5         1 JXQ       0.064800
     18 H3          -1.0420    -0.0770     1.8330 h1         1 JXQ       0.063200
     19 H4          -1.3410    -1.7450     1.3700 h1         1 JXQ       0.063200
     20 H5          -1.5200     0.6560    -0.5180 hc         1 JXQ       0.058700
     21 H6          -1.8290    -1.0150    -0.9710 hc         1 JXQ       0.058700
     22 H7          -3.7180    -1.1090     0.6690 hc         1 JXQ       0.047700
     23 H8          -3.3980     0.5520     1.1400 hc         1 JXQ       0.047700
     24 H9          -3.8580     1.3020    -1.2100 hc         1 JXQ       0.058700
     25 H10         -4.1860    -0.3550    -1.6750 hc         1 JXQ       0.058700
     26 H11         -7.7760     0.7520     0.2420 ha         1 JXQ       0.167500
     27 H12          5.4670     0.4450    -0.9440 hn         1 JXQ       0.451800
     28 H13          4.8760    -1.1730    -0.8300 hn         1 JXQ       0.451800
     29 C9A         -1.0040    -0.7770     0.9970 c3         1 JXQ       0.058300
@<TRIPOS>BOND
     1     1     2 ar  
     2     1     4 ar  
     3     1    14 1   
     4     2    11 ar  
     5     2    13 1   
     6     3    11 ar  
     7     3    12 ar  
     8     3    16 1   
     9     4    12 ar  
    10     4    15 1   
    11     5    14 2   
    12     5    15 1   
    13     5    17 1   
    14     6     7 1   
    15     6    20 1   
    16     6    21 1   
    17     6    29 1   
    18     7     8 1   
    19     7    22 1   
    20     7    23 1   
    21     8     9 1   
    22     8    24 1   
    23     8    25 1   
    24     9    10 3   
    25    10    26 1   
    26    13    27 1   
    27    13    28 1   
    28    15    29 1   
    29    18    29 1   
    30    19    29 1   
@<TRIPOS>SUBSTRUCTURE
     1 JXQ         1 TEMP              0 ****  ****    0 ROOT
