@<TRIPOS>MOLECULE
JXS
   39    42     1     0     0
SMALL
No Charge or Current Charge


@<TRIPOS>ATOM
      1 C05          1.9200    -0.7100     0.3380 ca         1 JXS      -0.061000
      2 C06         -3.1820    -0.5210     1.5040 ca         1 JXS      -0.308000
      3 C01          2.3460    -3.0840    -1.0870 ca         1 JXS      -0.119000
      4 C13         -4.5540     0.9420    -0.3480 ca         1 JXS       0.486000
      5 C16         -0.4680    -1.3900     0.8820 c3         1 JXS       0.214900
      6 C15          5.5760     3.1440     1.0040 c3         1 JXS       0.072900
      7 C11         -2.5440    -0.2200     0.2880 ca         1 JXS       0.233100
      8 C02          3.3800    -2.1390    -0.9750 ca         1 JXS      -0.082000
      9 C03          1.1000    -2.8450    -0.4880 ca         1 JXS      -0.080000
     10 C04          5.5510    -0.0450    -0.6850 cc         1 JXS      -0.214000
     11 C12          4.2590     0.0680    -0.1340 cc         1 JXS       0.301500
     12 C07          6.2410     1.0770    -0.3490 cd         1 JXS      -0.173000
     13 C08          3.1830    -0.9350    -0.2600 ca         1 JXS      -0.111500
     14 C09          0.8820    -1.6560     0.2290 ca         1 JXS      -0.111300
     15 C10         -3.2880     0.5280    -0.6210 ca         1 JXS      -0.208200
     16 C14         -4.4860    -0.0510     1.6850 ca         1 JXS       0.626900
     17 N17         -2.9620     0.9780    -1.8690 na         1 JXS      -0.030400
     18 N18          4.1020     1.2010     0.5290 nd         1 JXS      -0.524800
     19 N19         -5.1810     0.6650     0.8080 nb         1 JXS      -0.707000
     20 N20         -4.0500     1.6800    -2.3670 nc         1 JXS      -0.157400
     21 N21         -5.0160     1.6590    -1.4460 nd         1 JXS      -0.309000
     22 N22          5.3320     1.8280     0.3960 na         1 JXS       0.139800
     23 N23         -5.1820    -0.2720     2.8010 nv         1 JXS      -1.059900
     24 O24         -1.2650    -0.6180    -0.0300 os         1 JXS      -0.337100
     25 H1           1.7340     0.2080     0.8930 ha         1 JXS       0.131000
     26 H3           2.5120    -4.0050    -1.6420 ha         1 JXS       0.117000
     27 H4          -0.9590    -2.3440     1.1140 h1         1 JXS       0.048700
     28 H5          -0.3180    -0.8450     1.8230 h1         1 JXS       0.048700
     29 H6           5.4420     3.0750     2.0900 h1         1 JXS       0.057700
     30 H7           6.6000     3.4690     0.7850 h1         1 JXS       0.057700
     31 H8           4.8690     3.8740     0.5940 h1         1 JXS       0.057700
     32 H9           4.3300    -2.3590    -1.4510 ha         1 JXS       0.116000
     33 H10          0.3050    -3.5830    -0.5840 ha         1 JXS       0.117000
     34 H11          5.9260    -0.8760    -1.2700 ha         1 JXS       0.146000
     35 H12          7.2550     1.3960    -0.5640 h4         1 JXS       0.154000
     36 H13         -2.0980     0.8530    -2.3910 hn         1 JXS       0.390000
     37 H14         -6.0030     0.3120     2.9130 hn         1 JXS       0.476500
     38 H15         -4.6620    -0.4890     3.6430 hn         1 JXS       0.476500
     39 H2          -2.6990    -1.0980     2.2840 ha         1 JXS       0.125000
@<TRIPOS>BOND
     1     1    13 ar  
     2     1    14 ar  
     3     1    25 1   
     4     2     7 ar  
     5     2    16 ar  
     6     2    39 1   
     7     3     8 ar  
     8     3     9 ar  
     9     3    26 1   
    10     4    15 ar  
    11     4    19 ar  
    12     4    21 1   
    13     5    14 1   
    14     5    24 1   
    15     5    27 1   
    16     5    28 1   
    17     6    22 1   
    18     6    29 1   
    19     6    30 1   
    20     6    31 1   
    21     7    15 ar  
    22     7    24 1   
    23     8    13 ar  
    24     8    32 1   
    25     9    14 ar  
    26     9    33 1   
    27    10    11 1   
    28    10    12 2   
    29    10    34 1   
    30    11    13 1   
    31    11    18 2   
    32    12    22 1   
    33    12    35 1   
    34    15    17 1   
    35    16    19 ar  
    36    16    23 1   
    37    17    20 1   
    38    17    36 1   
    39    18    22 1   
    40    20    21 2   
    41    23    37 1   
    42    23    38 1   
@<TRIPOS>SUBSTRUCTURE
     1 JXS         1 TEMP              0 ****  ****    0 ROOT
