@<TRIPOS>MOLECULE
JXS
   39    42     1     0     0
SMALL
abcg2


@<TRIPOS>ATOM
      1 C05          1.9620    -0.6320     0.3390 ca         1 JXS      -0.061000
      2 C06         -3.0760    -0.3770     1.4830 ca         1 JXS      -0.308000
      3 C01          2.2090    -2.8890    -1.2420 ca         1 JXS      -0.119000
      4 C13         -4.6310     0.7010    -0.4170 ca         1 JXS       0.486000
      5 C16         -0.4200    -1.1850     0.8660 c3         1 JXS       0.214900
      6 C15          5.6020     2.9810     1.2010 c3         1 JXS       0.072900
      7 C11         -2.5070    -0.2550     0.2390 ca         1 JXS       0.233100
      8 C02          3.2860    -2.0260    -1.0930 ca         1 JXS      -0.082000
      9 C03          1.0080    -2.6260    -0.6020 ca         1 JXS      -0.080000
     10 C04          5.6180    -0.0970    -0.6560 cc         1 JXS      -0.214000
     11 C12          4.3130     0.0260    -0.1380 cc         1 JXS       0.301500
     12 C07          6.2730     1.0220    -0.2020 cd         1 JXS      -0.173000
     13 C08          3.1780    -0.8860    -0.2990 ca         1 JXS      -0.111500
     14 C09          0.8820    -1.4910     0.1960 ca         1 JXS      -0.111300
     15 C10         -3.3410     0.3100    -0.7450 ca         1 JXS      -0.208200
     16 C14         -4.4210     0.0590     1.7140 ca         1 JXS       0.626900
     17 N17         -3.2310     0.6140    -2.0550 na         1 JXS      -0.030400
     18 N18          4.1990     1.1390     0.5740 nd         1 JXS      -0.524800
     19 N19         -5.1960     0.5940     0.7900 nb         1 JXS      -0.707000
     20 N20         -4.3520     1.1450    -2.4990 nc         1 JXS      -0.157400
     21 N21         -5.2070     1.2100    -1.5390 nd         1 JXS      -0.309000
     22 N22          5.3860     1.7250     0.5250 na         1 JXS       0.139800
     23 N23         -4.9480    -0.1280     2.9530 nv         1 JXS      -1.059900
     24 O24         -1.2780    -0.6060    -0.1220 os         1 JXS      -0.337100
     25 H1           1.8630     0.2490     0.9610 ha         1 JXS       0.131000
     26 H3           2.3110    -3.7720    -1.8590 ha         1 JXS       0.117000
     27 H4          -0.8810    -2.0940     1.2630 h1         1 JXS       0.048700
     28 H5          -0.2820    -0.4820     1.6920 h1         1 JXS       0.048700
     29 H6           5.3980     2.8770     2.2640 h1         1 JXS       0.057700
     30 H7           6.6380     3.2780     1.0680 h1         1 JXS       0.057700
     31 H8           4.9570     3.7520     0.7850 h1         1 JXS       0.057700
     32 H9           4.2150    -2.2510    -1.6010 ha         1 JXS       0.116000
     33 H10          0.1720    -3.3050    -0.7170 ha         1 JXS       0.117000
     34 H11          6.0300    -0.8820    -1.2670 ha         1 JXS       0.146000
     35 H12          7.2870     1.3590    -0.3430 h4         1 JXS       0.154000
     36 H13         -2.4530     0.4850    -2.6850 hn         1 JXS       0.390000
     37 H14         -5.7860     0.3860     3.1710 hn         1 JXS       0.476500
     38 H15         -4.3190    -0.2530     3.7280 hn         1 JXS       0.476500
     39 H2          -2.5290    -0.8040     2.3120 ha         1 JXS       0.125000
@<TRIPOS>BOND
     1     1    13 ar  
     2     1    14 ar  
     3     1    25 1   
     4     2     7 ar  
     5     2    16 ar  
     6     2    39 1   
     7     3     8 ar  
     8     3     9 ar  
     9     3    26 1   
    10     4    15 ar  
    11     4    19 ar  
    12     4    21 1   
    13     5    14 1   
    14     5    24 1   
    15     5    27 1   
    16     5    28 1   
    17     6    22 1   
    18     6    29 1   
    19     6    30 1   
    20     6    31 1   
    21     7    15 ar  
    22     7    24 1   
    23     8    13 ar  
    24     8    32 1   
    25     9    14 ar  
    26     9    33 1   
    27    10    11 1   
    28    10    12 2   
    29    10    34 1   
    30    11    13 1   
    31    11    18 2   
    32    12    22 1   
    33    12    35 1   
    34    15    17 1   
    35    16    19 ar  
    36    16    23 1   
    37    17    20 1   
    38    17    36 1   
    39    18    22 1   
    40    20    21 2   
    41    23    37 1   
    42    23    38 1   
@<TRIPOS>SUBSTRUCTURE
     1 JXS         1 TEMP              0 ****  ****    0 ROOT
