@<TRIPOS>MOLECULE
JXT
   26    27     1     0     0
SMALL
No Charge or Current Charge


@<TRIPOS>ATOM
      1 C5           2.1310    -0.0620     0.0810 ca         1 JXT      -0.106600
      2 C4           1.1910    -0.9140    -0.4480 ca         1 JXT       0.135500
      3 C2           2.7290    -2.6050    -0.4670 ca         1 JXT       0.189900
      4 C6           3.4230    -0.5720     0.3220 ca         1 JXT       0.457900
      5 C8           0.3470     1.1300    -0.1010 cc         1 JXT       0.349800
      6 CAA         -5.0100    -2.7250     1.4720 c1         1 JXT      -0.236000
      7 CAD         -4.3200    -2.3090     0.5700 c1         1 JXT      -0.149100
      8 CAF         -3.4590    -1.7930    -0.5030 c3         1 JXT       0.011700
      9 CAG         -2.1210    -1.2370     0.0320 c3         1 JXT      -0.096400
     10 N1           3.7290    -1.8500     0.0520 nb         1 JXT      -0.303000
     11 N3           1.4630    -2.2030    -0.7340 nb         1 JXT      -0.222000
     12 N7           1.6240     1.2250     0.3080 nd         1 JXT      -0.513100
     13 N9           0.0620    -0.1560    -0.5670 na         1 JXT      -0.265300
     14 Br8         -0.9160     2.5340    -0.0460 br         1 JXT       0.017700
     15 H1           2.9670    -3.6440    -0.6910 h5         1 JXT       0.048100
     16 H2           5.2150    -0.2980     1.2640 hn         1 JXT       0.509000
     17 H3           4.1610     1.0740     1.2640 hn         1 JXT       0.509000
     18 H4          -5.6130    -3.0910     2.2810 ha         1 JXT       0.256000
     19 H5          -3.2640    -2.5990    -1.2210 hc         1 JXT       0.057700
     20 H6          -3.9980    -1.0030    -1.0420 hc         1 JXT       0.057700
     21 H7          -2.3230    -0.4360     0.7550 hc         1 JXT       0.064200
     22 H8          -1.5870    -2.0290     0.5720 hc         1 JXT       0.064200
     23 H9          -0.9950    -1.4910    -1.8060 h1         1 JXT       0.073200
     24 H10         -1.7340     0.1070    -1.6290 h1         1 JXT       0.073200
     25 N6           4.4240     0.1850     0.8470 nv         1 JXT      -1.061900
     26 CAH         -1.2100    -0.6900    -1.0850 c3         1 JXT       0.079600
@<TRIPOS>BOND
     1     1     2 ar  
     2     1     4 ar  
     3     1    12 1   
     4     2    11 ar  
     5     2    13 1   
     6     3    10 ar  
     7     3    11 ar  
     8     3    15 1   
     9     4    10 ar  
    10     4    25 1   
    11     5    12 2   
    12     5    13 1   
    13     5    14 1   
    14     6     7 3   
    15     6    18 1   
    16     7     8 1   
    17     8     9 1   
    18     8    19 1   
    19     8    20 1   
    20     9    21 1   
    21     9    22 1   
    22     9    26 1   
    23    13    26 1   
    24    16    25 1   
    25    17    25 1   
    26    23    26 1   
    27    24    26 1   
@<TRIPOS>SUBSTRUCTURE
     1 JXT         1 TEMP              0 ****  ****    0 ROOT
