@<TRIPOS>MOLECULE
JXT
   26    27     1     0     0
SMALL
abcg2


@<TRIPOS>ATOM
      1 C5           2.1180    -0.0470     0.1380 ca         1 JXT      -0.106600
      2 C4           1.2050    -0.9220    -0.4270 ca         1 JXT       0.135500
      3 C2           2.6610    -2.5610    -0.4700 ca         1 JXT       0.189900
      4 C6           3.4040    -0.5590     0.3900 ca         1 JXT       0.457900
      5 C8           0.3380     1.0380    -0.0830 cc         1 JXT       0.349800
      6 CAA         -5.0010    -2.6870     1.4310 c1         1 JXT      -0.236000
      7 CAD         -4.2910    -2.2750     0.5520 c1         1 JXT      -0.149100
      8 CAF         -3.4210    -1.7590    -0.4950 c3         1 JXT       0.011700
      9 CAG         -2.0900    -1.2460     0.0580 c3         1 JXT      -0.096400
     10 N1           3.6390    -1.8360     0.0680 nb         1 JXT      -0.303000
     11 N3           1.4230    -2.1930    -0.7520 nb         1 JXT      -0.222000
     12 N7           1.5500     1.1830     0.3460 nd         1 JXT      -0.513100
     13 N9           0.0510    -0.2040    -0.5760 na         1 JXT      -0.265300
     14 BR8         -0.9280     2.3920    -0.0520 br         1 JXT       0.017700
     15 H1           2.9190    -3.5880    -0.7040 h5         1 JXT       0.048100
     16 H2           5.2840    -0.2350     1.0960 hn         1 JXT       0.509000
     17 H3           4.2310     1.1290     1.1910 hn         1 JXT       0.509000
     18 H4          -5.6310    -3.0550     2.2080 ha         1 JXT       0.256000
     19 H5          -3.2410    -2.5460    -1.2330 hc         1 JXT       0.057700
     20 H6          -3.9400    -0.9550    -1.0240 hc         1 JXT       0.057700
     21 H7          -2.2770    -0.4540     0.7850 hc         1 JXT       0.064200
     22 H8          -1.5730    -2.0510     0.5830 hc         1 JXT       0.064200
     23 H9          -0.9720    -1.5230    -1.7720 h1         1 JXT       0.073200
     24 H10         -1.7140     0.0570    -1.6380 h1         1 JXT       0.073200
     25 N6           4.3800     0.1710     0.9290 nv         1 JXT      -1.061900
     26 CAH         -1.2090    -0.7250    -1.0690 c3         1 JXT       0.079600
@<TRIPOS>BOND
     1     1     2 ar  
     2     1     4 ar  
     3     1    12 1   
     4     2    11 ar  
     5     2    13 1   
     6     3    10 ar  
     7     3    11 ar  
     8     3    15 1   
     9     4    10 ar  
    10     4    25 1   
    11     5    12 2   
    12     5    13 1   
    13     5    14 1   
    14     6     7 3   
    15     6    18 1   
    16     7     8 1   
    17     8     9 1   
    18     8    19 1   
    19     8    20 1   
    20     9    21 1   
    21     9    22 1   
    22     9    26 1   
    23    13    26 1   
    24    16    25 1   
    25    17    25 1   
    26    23    26 1   
    27    24    26 1   
@<TRIPOS>SUBSTRUCTURE
     1 JXT         1 TEMP              0 ****  ****    0 ROOT
