@<TRIPOS>MOLECULE
JXV
   45    48     1     0     0
SMALL
No Charge or Current Charge


@<TRIPOS>ATOM
      1 C1           2.5250     0.4030    -0.2260 cp         1 JXV      -0.161500
      2 C2           3.8220     0.7180     0.2710 ca         1 JXV      -0.058000
      3 C3           2.3230    -0.9040    -0.7480 ca         1 JXV      -0.087000
      4 C4           4.8590    -0.2280     0.2550 ca         1 JXV       0.042100
      5 C5           3.3630    -1.8510    -0.7760 ca         1 JXV      -0.122000
      6 C6           4.6330    -1.5160    -0.2870 ca         1 JXV       0.074100
      7 C11          1.4160     1.4190    -0.2020 cp         1 JXV       0.215500
      8 C15          0.0450     1.0700    -0.2700 ca         1 JXV      -0.289000
      9 C18         -2.9580     0.5600    -0.1730 c3         1 JXV       0.193800
     10 C19         -4.5050     0.6970    -0.3450 c3         1 JXV       0.204600
     11 C21         -6.8160    -2.3220    -0.8970 ca         1 JXV      -0.107500
     12 C23         -6.1230    -1.1160    -1.0990 ca         1 JXV      -0.097000
     13 C24         -5.0930    -1.3430     1.0940 ca         1 JXV      -0.097000
     14 O26         -5.0320     1.7140     0.5290 oh         1 JXV      -0.647000
     15 C10          7.0260    -0.9630     1.0310 c6         1 JXV       0.117600
     16 C13         -0.9040     2.1000    -0.2380 ca         1 JXV       0.381900
     17 C14          0.7750     3.6360    -0.0810 ca         1 JXV       0.166900
     18 C20         -6.6480    -3.0400     0.2980 ca         1 JXV      -0.101000
     19 C22         -5.7870    -2.5490     1.2930 ca         1 JXV      -0.107500
     20 C25         -5.2520    -0.6170    -0.1080 ca         1 JXV      -0.121300
     21 C9           6.9980    -1.9760    -0.1340 c6         1 JXV       0.117600
     22 N12         -0.5480     3.3880    -0.1480 nb         1 JXV      -0.264000
     23 N16          1.7630     2.7190    -0.0990 nb         1 JXV      -0.227000
     24 N17         -2.2650     1.8610    -0.3030 nu         1 JXV      -0.929100
     25 O7           5.6490    -2.4490    -0.3410 os         1 JXV      -0.329100
     26 O8           6.0950     0.1120     0.7710 os         1 JXV      -0.326100
     27 H1           4.0280     1.7000     0.6910 ha         1 JXV       0.152000
     28 H2           1.3580    -1.1920    -1.1560 ha         1 JXV       0.116000
     29 H3           3.1870    -2.8410    -1.1900 ha         1 JXV       0.128000
     30 H4          -0.2680     0.0350    -0.3310 ha         1 JXV       0.129000
     31 H5          -2.7330     0.1230     0.8090 h1         1 JXV       0.050200
     32 H6          -2.5880    -0.1390    -0.9360 h1         1 JXV       0.050200
     33 H7          -4.6740     1.0010    -1.3880 h1         1 JXV       0.089700
     34 H9          -6.2650    -0.5700    -2.0290 ha         1 JXV       0.111000
     35 H10         -4.4340    -0.9780     1.8790 ha         1 JXV       0.111000
     36 H11         -5.0480     1.3260     1.4300 ho         1 JXV       0.444000
     37 H12          6.7360    -1.4680     1.9630 h1         1 JXV       0.067700
     38 H13          8.0350    -0.5470     1.1620 h1         1 JXV       0.067700
     39 H14          1.0750     4.6800    -0.0020 h5         1 JXV       0.045100
     40 H15         -7.1850    -3.9730     0.4540 ha         1 JXV       0.116000
     41 H16         -5.6580    -3.1030     2.2210 ha         1 JXV       0.116500
     42 H17          7.3500    -1.4860    -1.0530 h1         1 JXV       0.068700
     43 H18          7.6570    -2.8300     0.0770 h1         1 JXV       0.068700
     44 H19         -2.8520     2.6920    -0.1920 hn         1 JXV       0.514000
     45 H8          -7.4850    -2.7000    -1.6680 ha         1 JXV       0.116500
@<TRIPOS>BOND
     1     1     2 ar  
     2     1     3 ar  
     3     1     7 1   
     4     2     4 ar  
     5     2    27 1   
     6     3     5 ar  
     7     3    28 1   
     8     4     6 ar  
     9     4    26 1   
    10     5     6 ar  
    11     5    29 1   
    12     6    25 1   
    13     7     8 ar  
    14     7    23 ar  
    15     8    16 ar  
    16     8    30 1   
    17     9    10 1   
    18     9    24 1   
    19     9    31 1   
    20     9    32 1   
    21    10    14 1   
    22    10    20 1   
    23    10    33 1   
    24    11    12 ar  
    25    11    18 ar  
    26    11    45 1   
    27    12    20 ar  
    28    12    34 1   
    29    13    19 ar  
    30    13    20 ar  
    31    13    35 1   
    32    14    36 1   
    33    15    21 1   
    34    15    26 1   
    35    15    37 1   
    36    15    38 1   
    37    16    22 ar  
    38    16    24 1   
    39    17    22 ar  
    40    17    23 ar  
    41    17    39 1   
    42    18    19 ar  
    43    18    40 1   
    44    19    41 1   
    45    21    25 1   
    46    21    42 1   
    47    21    43 1   
    48    24    44 1   
@<TRIPOS>SUBSTRUCTURE
     1 JXV         1 TEMP              0 ****  ****    0 ROOT
