@<TRIPOS>MOLECULE
JXV
   45    48     1     0     0
SMALL
abcg2


@<TRIPOS>ATOM
      1 C1           2.3710     0.3590    -0.1950 cp         1 JXV      -0.161500
      2 C2           3.6820     0.6980     0.1360 ca         1 JXV      -0.058000
      3 C3           2.0910    -0.9620    -0.5490 ca         1 JXV      -0.087000
      4 C4           4.6910    -0.2510     0.1210 ca         1 JXV       0.042100
      5 C5           3.0970    -1.9100    -0.5830 ca         1 JXV      -0.122000
      6 C6           4.4020    -1.5690    -0.2530 ca         1 JXV       0.074100
      7 C11          1.3200     1.3950    -0.1600 cp         1 JXV       0.215500
      8 C15         -0.0230     1.0730    -0.1060 ca         1 JXV      -0.289000
      9 C18         -2.9130     0.6600     0.0680 c3         1 JXV       0.193800
     10 C19         -4.4120     0.7810    -0.1910 c3         1 JXV       0.204600
     11 C21         -5.9820    -2.5390    -1.1570 ca         1 JXV      -0.107500
     12 C23         -5.4040    -1.2790    -1.2350 ca         1 JXV      -0.097000
     13 C24         -5.3180    -1.1610     1.1570 ca         1 JXV      -0.097000
     14 O26         -5.0110     1.7560     0.6320 oh         1 JXV      -0.647000
     15 C10          6.8150    -0.9490     0.7730 c6         1 JXV       0.117600
     16 C13         -0.9450     2.1330    -0.0930 ca         1 JXV       0.381900
     17 C14          0.7840     3.5910    -0.1310 ca         1 JXV       0.166900
     18 C20         -6.2330    -3.1120     0.0820 ca         1 JXV      -0.101000
     19 C22         -5.8970    -2.4190     1.2390 ca         1 JXV      -0.107500
     20 C25         -5.0660    -0.5780    -0.0830 ca         1 JXV      -0.121300
     21 C9           6.6870    -2.0270    -0.2750 c6         1 JXV       0.117600
     22 N12         -0.5210     3.4060    -0.1020 nb         1 JXV      -0.264000
     23 N16          1.7310     2.6730    -0.1670 nb         1 JXV      -0.227000
     24 N17         -2.2740     1.9440    -0.0770 nu         1 JXV      -0.929100
     25 O7           5.3550    -2.5220    -0.3050 os         1 JXV      -0.329100
     26 O8           5.9410     0.1300     0.4740 os         1 JXV      -0.326100
     27 H1           3.9230     1.7140     0.4190 ha         1 JXV       0.152000
     28 H2           1.0920    -1.2620    -0.8320 ha         1 JXV       0.116000
     29 H3           2.8770    -2.9290    -0.8770 ha         1 JXV       0.128000
     30 H4          -0.3540     0.0460    -0.0540 ha         1 JXV       0.129000
     31 H5          -2.7350     0.2350     1.0650 h1         1 JXV       0.050200
     32 H6          -2.5000    -0.0480    -0.6550 h1         1 JXV       0.050200
     33 H7          -4.5460     1.1450    -1.2140 h1         1 JXV       0.089700
     34 H9          -5.2150    -0.8350    -2.2060 ha         1 JXV       0.111000
     35 H10         -5.0630    -0.6460     2.0770 ha         1 JXV       0.111000
     36 H11         -4.8350     1.5500     1.5570 ho         1 JXV       0.444000
     37 H12          6.5890    -1.3520     1.7660 h1         1 JXV       0.067700
     38 H13          7.8280    -0.5490     0.7870 h1         1 JXV       0.067700
     39 H14          1.1170     4.6250    -0.1280 h5         1 JXV       0.045100
     40 H15         -6.6880    -4.0910     0.1480 ha         1 JXV       0.116000
     41 H16         -6.0880    -2.8600     2.2090 ha         1 JXV       0.116500
     42 H17          6.9640    -1.6390    -1.2600 h1         1 JXV       0.068700
     43 H18          7.3380    -2.8680    -0.0390 h1         1 JXV       0.068700
     44 H19         -2.8340     2.7670     0.0900 hn         1 JXV       0.514000
     45 H8          -6.2400    -3.0700    -2.0640 ha         1 JXV       0.116500
@<TRIPOS>BOND
     1     1     2 ar  
     2     1     3 ar  
     3     1     7 1   
     4     2     4 ar  
     5     2    27 1   
     6     3     5 ar  
     7     3    28 1   
     8     4     6 ar  
     9     4    26 1   
    10     5     6 ar  
    11     5    29 1   
    12     6    25 1   
    13     7     8 ar  
    14     7    23 ar  
    15     8    16 ar  
    16     8    30 1   
    17     9    10 1   
    18     9    24 1   
    19     9    31 1   
    20     9    32 1   
    21    10    14 1   
    22    10    20 1   
    23    10    33 1   
    24    11    12 ar  
    25    11    18 ar  
    26    11    45 1   
    27    12    20 ar  
    28    12    34 1   
    29    13    19 ar  
    30    13    20 ar  
    31    13    35 1   
    32    14    36 1   
    33    15    21 1   
    34    15    26 1   
    35    15    37 1   
    36    15    38 1   
    37    16    22 ar  
    38    16    24 1   
    39    17    22 ar  
    40    17    23 ar  
    41    17    39 1   
    42    18    19 ar  
    43    18    40 1   
    44    19    41 1   
    45    21    25 1   
    46    21    42 1   
    47    21    43 1   
    48    24    44 1   
@<TRIPOS>SUBSTRUCTURE
     1 JXV         1 TEMP              0 ****  ****    0 ROOT
