@<TRIPOS>MOLECULE
JXW
   24    25     1     0     0
SMALL
bcc


@<TRIPOS>ATOM
      1 C            0.8680     2.9110    -0.2110 c3         1 JXW      -0.111400
      2 N           -1.3210     1.7820     0.0720 nc         1 JXW      -0.550100
      3 C1          -0.0390     1.7390    -0.1650 cd         1 JXW       0.408800
      4 N1          -4.1040     0.5420     0.4370 nv         1 JXW      -0.952500
      5 C2          -1.7340     0.4760     0.0210 ca         1 JXW      -0.226200
      6 N2          -3.0450    -1.4760     0.0810 nb         1 JXW      -0.826000
      7 C3          -2.9840    -0.1430     0.1890 ca         1 JXW       0.778200
      8 N3          -0.7090    -1.6900    -0.3660 nb         1 JXW      -0.749000
      9 C4          -1.9330    -2.1560    -0.1840 ca         1 JXW       0.708900
     10 N4           0.4130     0.4580    -0.3790 na         1 JXW      -0.258000
     11 C5          -0.6680    -0.3650    -0.2530 ca         1 JXW       0.453800
     12 C6           1.7710     0.0320    -0.6250 c3         1 JXW       0.045300
     13 C7           2.4630    -0.3060     0.6850 c3         1 JXW       0.025000
     14 CL           4.1490    -0.8130     0.3530 cl         1 JXW      -0.191400
     15 H1           1.6500     2.8460     0.5470 hc         1 JXW       0.059700
     16 H2           1.3590     2.9980    -1.1820 hc         1 JXW       0.059700
     17 H3           0.2970     3.8190    -0.0340 hc         1 JXW       0.059700
     18 H4          -4.9620     0.0550     0.6290 hn         1 JXW       0.450800
     19 H5          -4.0760     1.5340     0.5970 hn         1 JXW       0.450800
     20 H6          -2.0510    -3.2320    -0.2580 h5         1 JXW       0.047100
     21 H7           1.7480    -0.8410    -1.2760 h1         1 JXW       0.080700
     22 H8           2.3050     0.8230    -1.1490 h1         1 JXW       0.080700
     23 H9           2.5030     0.5530     1.3510 h1         1 JXW       0.078200
     24 H10          1.9660    -1.1300     1.1950 h1         1 JXW       0.078200
@<TRIPOS>BOND
     1     1     3 1   
     2     1    15 1   
     3     1    16 1   
     4     1    17 1   
     5     2     3 2   
     6     2     5 1   
     7     3    10 1   
     8     4     7 1   
     9     4    18 1   
    10     4    19 1   
    11     5     7 ar  
    12     5    11 ar  
    13     6     7 ar  
    14     6     9 ar  
    15     8     9 ar  
    16     8    11 ar  
    17     9    20 1   
    18    10    11 1   
    19    10    12 1   
    20    12    13 1   
    21    12    21 1   
    22    12    22 1   
    23    13    14 1   
    24    13    23 1   
    25    13    24 1   
@<TRIPOS>SUBSTRUCTURE
     1 JXW         1 TEMP              0 ****  ****    0 ROOT
