@<TRIPOS>MOLECULE
JXW
   24    25     1     0     0
SMALL
No Charge or Current Charge


@<TRIPOS>ATOM
      1 C            0.7880     3.0080    -0.2260 c3         1 JXW      -0.111400
      2 N           -1.3830     1.8110     0.0130 nc         1 JXW      -0.550100
      3 C1          -0.0570     1.7660    -0.1970 cd         1 JXW       0.408800
      4 N1          -4.1220     0.5630     0.3540 nv         1 JXW      -1.062900
      5 C2          -1.7250     0.4590    -0.0350 ca         1 JXW      -0.095600
      6 N2          -3.1340    -1.4830     0.0580 nb         1 JXW      -0.300000
      7 C3          -2.9880    -0.1510     0.1210 ca         1 JXW       0.449900
      8 N3          -0.7550    -1.6980    -0.3340 nb         1 JXW      -0.223000
      9 C4          -2.0040    -2.1940    -0.1690 ca         1 JXW       0.182900
     10 N4           0.4470     0.4680    -0.3750 na         1 JXW      -0.287300
     11 C5          -0.6420    -0.3560    -0.2630 ca         1 JXW       0.125500
     12 C6           1.8310     0.0100    -0.6010 c3         1 JXW       0.074600
     13 C7           2.5470    -0.3890     0.7020 c3         1 JXW       0.101600
     14 Cl           4.2510    -0.9330     0.3770 cl         1 JXW      -0.268000
     15 H1           1.6030     2.9410     0.5040 hc         1 JXW       0.059700
     16 H2           1.2310     3.1530    -1.2170 hc         1 JXW       0.059700
     17 H3           0.1970     3.9000     0.0120 hc         1 JXW       0.059700
     18 H4          -4.9210     0.0730     0.7470 hn         1 JXW       0.506000
     19 H5          -4.0060     1.5380     0.6230 hn         1 JXW       0.506000
     20 H6          -2.1100    -3.2760    -0.2230 h5         1 JXW       0.047100
     21 H7           1.8130    -0.8520    -1.2810 h1         1 JXW       0.080700
     22 H8           2.3970     0.8100    -1.0940 h1         1 JXW       0.080700
     23 H9           2.5920     0.4650     1.3890 h1         1 JXW       0.078200
     24 H10          2.0170    -1.2160     1.1900 h1         1 JXW       0.078200
@<TRIPOS>BOND
     1     1     3 1   
     2     1    15 1   
     3     1    16 1   
     4     1    17 1   
     5     2     3 2   
     6     2     5 1   
     7     3    10 1   
     8     4     7 1   
     9     4    18 1   
    10     4    19 1   
    11     5     7 ar  
    12     5    11 ar  
    13     6     7 ar  
    14     6     9 ar  
    15     8     9 ar  
    16     8    11 ar  
    17     9    20 1   
    18    10    11 1   
    19    10    12 1   
    20    12    13 1   
    21    12    21 1   
    22    12    22 1   
    23    13    14 1   
    24    13    23 1   
    25    13    24 1   
@<TRIPOS>SUBSTRUCTURE
     1 JXW         1 TEMP              0 ****  ****    0 ROOT
