@<TRIPOS>MOLECULE
JXX
   29    31     1     0     0
SMALL
No Charge or Current Charge


@<TRIPOS>ATOM
      1 C13         93.5810    -5.0350    14.6600 c6         1 JXX       0.177800
      2 C16         91.2490    -3.4580    13.9330 c6         1 JXX       0.124600
      3 C17         91.2460    -4.3240    15.2270 c6         1 JXX       0.177800
      4 C1          89.4180    -8.9990    17.6530 ca         1 JXX      -0.078000
      5 C2          89.8870    -7.7300    18.0260 ca         1 JXX      -0.127000
      6 C3          90.6600    -6.9750    17.1300 ca         1 JXX      -0.067000
      7 C4          89.7290    -9.5170    16.3840 ca         1 JXX      -0.097000
      8 C5          90.5040    -8.7740    15.4750 ca         1 JXX       0.053000
      9 C6          90.9650    -7.4860    15.8480 ca         1 JXX      -0.167000
     10 C7          91.7400    -6.7670    14.9030 ca         1 JXX       0.414900
     11 N8          92.0410    -7.2940    13.7020 nb         1 JXX      -0.276000
     12 C9          91.5610    -8.5220    13.4460 ca         1 JXX       0.268000
     13 N10         90.8090    -9.2830    14.2640 nb         1 JXX      -0.189000
     14 Cl11        91.9510    -9.2040    11.8760 cl         1 JXX      -0.142000
     15 N12         92.2230    -5.4580    15.1420 nh         1 JXX      -0.774300
     16 C14         93.4950    -4.1410    13.3870 c6         1 JXX       0.124600
     17 O15         92.5920    -3.0300    13.6040 os         1 JXX      -0.442000
     18 H22         94.0960    -4.4730    15.4530 h1         1 JXX       0.071200
     19 H23         94.2140    -5.9090    14.4450 h1         1 JXX       0.071200
     20 H26         90.6120    -2.5730    14.0750 h1         1 JXX       0.059200
     21 H27         90.8400    -4.0410    13.0950 h1         1 JXX       0.059200
     22 H29         90.2260    -4.7010    15.3960 h1         1 JXX       0.071200
     23 H28         91.4890    -3.6840    16.0880 h1         1 JXX       0.071200
     24 H19         89.6530    -7.3330    19.0110 ha         1 JXX       0.119000
     25 H20         91.0250    -6.0000    17.4440 ha         1 JXX       0.120000
     26 H21         89.3680   -10.5040    16.1060 ha         1 JXX       0.139000
     27 H24         94.4920    -3.7530    13.1360 h1         1 JXX       0.059200
     28 H25         93.1370    -4.7380    12.5360 h1         1 JXX       0.059200
     29 H18         88.8190    -9.5850    18.3470 ha         1 JXX       0.120000
@<TRIPOS>BOND
     1     1    15 1   
     2     1    16 1   
     3     1    18 1   
     4     1    19 1   
     5     2     3 1   
     6     2    17 1   
     7     2    20 1   
     8     2    21 1   
     9     3    15 1   
    10     3    22 1   
    11     3    23 1   
    12     4     5 ar  
    13     4     7 ar  
    14     4    29 1   
    15     5     6 ar  
    16     5    24 1   
    17     6     9 ar  
    18     6    25 1   
    19     7     8 ar  
    20     7    26 1   
    21     8     9 ar  
    22     8    13 ar  
    23     9    10 ar  
    24    10    11 ar  
    25    10    15 1   
    26    11    12 ar  
    27    12    13 ar  
    28    12    14 1   
    29    16    17 1   
    30    16    27 1   
    31    16    28 1   
@<TRIPOS>SUBSTRUCTURE
     1 JXX         1 TEMP              0 ****  ****    0 ROOT
