@<TRIPOS>MOLECULE
JXX
   29    31     1     0     0
SMALL
abcg2


@<TRIPOS>ATOM
      1 C13         93.5570    -5.0190    14.4030 c6         1 JXX       0.177800
      2 C16         91.1740    -3.5700    14.2520 c6         1 JXX       0.124600
      3 C17         91.4920    -4.4090    15.4840 c6         1 JXX       0.177800
      4 C1          89.1750    -8.8080    17.3960 ca         1 JXX      -0.078000
      5 C2          89.7300    -7.6040    17.8590 ca         1 JXX      -0.127000
      6 C3          90.6330    -6.9180    17.0880 ca         1 JXX      -0.067000
      7 C4          89.5750    -9.3400    16.1970 ca         1 JXX      -0.097000
      8 C5          90.5280    -8.6690    15.4080 ca         1 JXX       0.053000
      9 C6          91.0120    -7.4100    15.8240 ca         1 JXX      -0.167000
     10 C7          91.9480    -6.7730    14.9300 ca         1 JXX       0.414900
     11 N8          92.4510    -7.4580    13.9140 nb         1 JXX      -0.276000
     12 C9          91.9460    -8.6600    13.6810 ca         1 JXX       0.268000
     13 N10         90.9970    -9.2870    14.2870 nb         1 JXX      -0.189000
     14 CL11        92.6540    -9.4770    12.3180 cl         1 JXX      -0.142000
     15 N12         92.3800    -5.5070    15.1100 nh         1 JXX      -0.774300
     16 C14         93.1630    -4.1700    13.2070 c6         1 JXX       0.124600
     17 O15         92.3310    -3.1020    13.6040 os         1 JXX      -0.442000
     18 H22         94.1300    -4.4130    15.1100 h1         1 JXX       0.071200
     19 H23         94.1810    -5.8520    14.0920 h1         1 JXX       0.071200
     20 H26         90.5880    -2.7000    14.5510 h1         1 JXX       0.059200
     21 H27         90.5600    -4.1720    13.5660 h1         1 JXX       0.059200
     22 H29         90.5520    -4.7760    15.8870 h1         1 JXX       0.071200
     23 H28         91.9760    -3.8020    16.2540 h1         1 JXX       0.071200
     24 H19         89.4520    -7.2210    18.8320 ha         1 JXX       0.119000
     25 H20         91.0770    -6.0140    17.4810 ha         1 JXX       0.120000
     26 H21         89.1920   -10.2910    15.8490 ha         1 JXX       0.139000
     27 H24         94.0530    -3.7380    12.7480 h1         1 JXX       0.059200
     28 H25         92.6620    -4.7960    12.4560 h1         1 JXX       0.059200
     29 H18         88.4520    -9.3340    18.0040 ha         1 JXX       0.120000
@<TRIPOS>BOND
     1     1    15 1   
     2     1    16 1   
     3     1    18 1   
     4     1    19 1   
     5     2     3 1   
     6     2    17 1   
     7     2    20 1   
     8     2    21 1   
     9     3    15 1   
    10     3    22 1   
    11     3    23 1   
    12     4     5 ar  
    13     4     7 ar  
    14     4    29 1   
    15     5     6 ar  
    16     5    24 1   
    17     6     9 ar  
    18     6    25 1   
    19     7     8 ar  
    20     7    26 1   
    21     8     9 ar  
    22     8    13 ar  
    23     9    10 ar  
    24    10    11 ar  
    25    10    15 1   
    26    11    12 ar  
    27    12    13 ar  
    28    12    14 1   
    29    16    17 1   
    30    16    27 1   
    31    16    28 1   
@<TRIPOS>SUBSTRUCTURE
     1 JXX         1 TEMP              0 ****  ****    0 ROOT
