@<TRIPOS>MOLECULE
JXY
   38    40     1     0     0
SMALL
No Charge or Current Charge


@<TRIPOS>ATOM
      1 C13        -27.4730     3.1110     5.0950 c6         1 JXY       0.238600
      2 C15        -26.3770     2.8840     6.1410 ca         1 JXY      -0.132300
      3 C17        -24.9070     3.7580     7.8820 ca         1 JXY      -0.180500
      4 C20        -25.8260     1.6000     6.3390 ca         1 JXY      -0.045500
      5 C01        -28.2460     2.3540     0.3700 ca         1 JXY       0.246100
      6 C02        -29.6370     2.4760     0.5540 ca         1 JXY      -0.210300
      7 C03        -30.1430     2.6000     1.8620 ca         1 JXY       0.286100
      8 C04        -29.2800     2.6200     2.9690 ca         1 JXY      -0.415600
      9 C05        -27.8910     2.5360     2.7640 ca         1 JXY       0.265100
     10 C06        -27.3620     2.3850     1.4660 ca         1 JXY      -0.266300
     11 C07        -25.8450     2.2640     1.2440 c3         1 JXY      -0.033800
     12 C09        -30.5880     2.4480    -0.6540 c3         1 JXY      -0.015800
     13 C11        -29.7960     2.7080     4.3700 c          1 JXY       0.615700
     14 C12        -28.7990     2.4580     5.4800 c6         1 JXY      -0.206400
     15 C16        -25.9100     3.9630     6.9180 ca         1 JXY      -0.045500
     16 C18        -24.3650     2.4800     8.0740 ca         1 JXY       0.154100
     17 C19        -24.8230     1.4000     7.3030 ca         1 JXY      -0.180500
     18 O08        -27.7450     2.2020    -0.8900 oh         1 JXY      -0.524100
     19 O10        -31.4850     2.6890     2.0620 oh         1 JXY      -0.542100
     20 O14        -27.0260     2.5830     3.8360 os         1 JXY      -0.341100
     21 O21        -23.3930     2.2940     9.0100 oh         1 JXY      -0.529100
     22 O22        -30.9580     3.0080     4.6120 o          1 JXY      -0.579100
     23 H1         -27.6330     4.1930     4.9690 h1         1 JXY       0.058700
     24 H2         -24.5500     4.5930     8.4790 ha         1 JXY       0.124000
     25 H3         -26.1740     0.7580     5.7430 ha         1 JXY       0.117000
     26 H4         -25.4740     3.0780     0.6090 hc         1 JXY       0.042700
     27 H5         -25.2660     2.3040     2.1730 hc         1 JXY       0.042700
     28 H6         -25.5920     1.3140     0.7590 hc         1 JXY       0.042700
     29 H7         -30.8710     1.4180    -0.9010 hc         1 JXY       0.044033
     30 H8         -31.5100     3.0120    -0.4720 hc         1 JXY       0.044033
     31 H9         -30.1330     2.8920    -1.5470 hc         1 JXY       0.044033
     32 H10        -29.1930     2.7950     6.4460 hc         1 JXY       0.088200
     33 H11        -28.6230     1.3760     5.5130 hc         1 JXY       0.088200
     34 H12        -26.3240     4.9600     6.7790 ha         1 JXY       0.117000
     35 H13        -24.4080     0.4050     7.4440 ha         1 JXY       0.124000
     36 H14        -26.7730     2.1320    -0.8160 ho         1 JXY       0.476000
     37 H15        -31.5990     2.8400     3.0340 ho         1 JXY       0.519000
     38 H16        -23.1360     1.3470     9.0060 ho         1 JXY       0.468000
@<TRIPOS>BOND
     1     1     2 1   
     2     1    14 1   
     3     1    20 1   
     4     1    23 1   
     5     2     4 ar  
     6     2    15 ar  
     7     3    15 ar  
     8     3    16 ar  
     9     3    24 1   
    10     4    17 ar  
    11     4    25 1   
    12     5     6 ar  
    13     5    10 ar  
    14     5    18 1   
    15     6     7 ar  
    16     6    12 1   
    17     7     8 ar  
    18     7    19 1   
    19     8     9 ar  
    20     8    13 1   
    21     9    10 ar  
    22     9    20 1   
    23    10    11 1   
    24    11    26 1   
    25    11    27 1   
    26    11    28 1   
    27    12    29 1   
    28    12    30 1   
    29    12    31 1   
    30    13    14 1   
    31    13    22 2   
    32    14    32 1   
    33    14    33 1   
    34    15    34 1   
    35    16    17 ar  
    36    16    21 1   
    37    17    35 1   
    38    18    36 1   
    39    19    37 1   
    40    21    38 1   
@<TRIPOS>SUBSTRUCTURE
     1 JXY         1 TEMP              0 ****  ****    0 ROOT
