@<TRIPOS>MOLECULE
JXY
   38    40     1     0     0
SMALL
abcg2


@<TRIPOS>ATOM
      1 C13        -27.5620     2.8160     5.1260 c6         1 JXY       0.238600
      2 C15        -26.4450     2.6850     6.1230 ca         1 JXY      -0.132300
      3 C17        -24.2580     3.4230     6.8640 ca         1 JXY      -0.180500
      4 C20        -26.4650     1.7770     7.1730 ca         1 JXY      -0.045500
      5 C01        -28.2210     2.6650     0.4640 ca         1 JXY       0.246100
      6 C02        -29.6140     2.6110     0.5950 ca         1 JXY      -0.210300
      7 C03        -30.1300     2.4770     1.8760 ca         1 JXY       0.286100
      8 C04        -29.2740     2.4040     3.0040 ca         1 JXY      -0.415600
      9 C05        -27.8810     2.4800     2.8090 ca         1 JXY       0.265100
     10 C06        -27.3280     2.6180     1.5470 ca         1 JXY      -0.266300
     11 C07        -25.8460     2.7230     1.3200 c3         1 JXY      -0.033800
     12 C09        -30.4910     2.6850    -0.6200 c3         1 JXY      -0.015800
     13 C11        -29.8140     2.1800     4.3230 c          1 JXY       0.615700
     14 C12        -28.8180     2.0300     5.4380 c6         1 JXY      -0.206400
     15 C16        -25.3250     3.5070     5.9890 ca         1 JXY      -0.045500
     16 C18        -24.2920     2.5050     7.9140 ca         1 JXY       0.154100
     17 C19        -25.4060     1.6870     8.0660 ca         1 JXY      -0.180500
     18 O08        -27.7700     2.7840    -0.7900 oh         1 JXY      -0.524100
     19 O10        -31.4490     2.4030     2.0370 oh         1 JXY      -0.542100
     20 O14        -27.0410     2.4030     3.8550 os         1 JXY      -0.341100
     21 O21        -23.2350     2.4620     8.7450 oh         1 JXY      -0.529100
     22 O22        -31.0230     2.0760     4.5380 o          1 JXY      -0.579100
     23 H1         -27.8330     3.8770     5.0380 h1         1 JXY       0.058700
     24 H2         -23.3980     4.0700     6.7410 ha         1 JXY       0.124000
     25 H3         -27.3120     1.1210     7.3260 ha         1 JXY       0.117000
     26 H4         -25.5810     3.6390     0.7850 hc         1 JXY       0.042700
     27 H5         -25.2970     2.7420     2.2560 hc         1 JXY       0.042700
     28 H6         -25.4580     1.8800     0.7430 hc         1 JXY       0.042700
     29 H7         -30.3160     1.8470    -1.2970 hc         1 JXY       0.044033
     30 H8         -31.5450     2.6710    -0.3540 hc         1 JXY       0.044033
     31 H9         -30.3120     3.5980    -1.1900 hc         1 JXY       0.044033
     32 H10        -29.2620     2.3640     6.3760 hc         1 JXY       0.088200
     33 H11        -28.5970     0.9610     5.5400 hc         1 JXY       0.088200
     34 H12        -25.2840     4.2330     5.1860 ha         1 JXY       0.117000
     35 H13        -25.4520     0.9720     8.8800 ha         1 JXY       0.124000
     36 H14        -26.8070     2.7970    -0.8280 ho         1 JXY       0.476000
     37 H15        -31.6230     2.2740     3.0010 ho         1 JXY       0.519000
     38 H16        -23.3680     1.7920     9.4260 ho         1 JXY       0.468000
@<TRIPOS>BOND
     1     1     2 1   
     2     1    14 1   
     3     1    20 1   
     4     1    23 1   
     5     2     4 ar  
     6     2    15 ar  
     7     3    15 ar  
     8     3    16 ar  
     9     3    24 1   
    10     4    17 ar  
    11     4    25 1   
    12     5     6 ar  
    13     5    10 ar  
    14     5    18 1   
    15     6     7 ar  
    16     6    12 1   
    17     7     8 ar  
    18     7    19 1   
    19     8     9 ar  
    20     8    13 1   
    21     9    10 ar  
    22     9    20 1   
    23    10    11 1   
    24    11    26 1   
    25    11    27 1   
    26    11    28 1   
    27    12    29 1   
    28    12    30 1   
    29    12    31 1   
    30    13    14 1   
    31    13    22 2   
    32    14    32 1   
    33    14    33 1   
    34    15    34 1   
    35    16    17 ar  
    36    16    21 1   
    37    17    35 1   
    38    18    36 1   
    39    19    37 1   
    40    21    38 1   
@<TRIPOS>SUBSTRUCTURE
     1 JXY         1 TEMP              0 ****  ****    0 ROOT
