@<TRIPOS>MOLECULE
JXZ
   25    26     1     0     0
SMALL
No Charge or Current Charge


@<TRIPOS>ATOM
      1 C2           1.7930     2.0780     0.1690 ca         1 JXZ       0.180900
      2 C4           0.2390     0.3980     0.2300 ca         1 JXZ       0.125500
      3 C5           1.2170    -0.5190    -0.0770 ca         1 JXZ      -0.096600
      4 C6           2.5340    -0.0420    -0.2580 ca         1 JXZ       0.450900
      5 N7           0.7290    -1.8230    -0.1590 nc         1 JXZ      -0.554100
      6 C8          -0.5760    -1.6440     0.1060 cd         1 JXZ       0.407800
      7 CAA         -1.5500    -2.7890     0.1220 c3         1 JXZ      -0.110400
      8 CAE         -2.9880     0.7500    -0.6250 c3         1 JXZ       0.141600
      9 N1           2.8290     1.2600    -0.1330 nb         1 JXZ      -0.302000
     10 N3           0.5030     1.7140     0.3580 nb         1 JXZ      -0.221000
     11 N6           3.5750    -0.8640    -0.5590 nv         1 JXZ      -1.067900
     12 N9          -0.9280    -0.3090     0.3540 na         1 JXZ      -0.282300
     13 OAC         -4.2690     1.2970    -0.2780 oh         1 JXZ      -0.659000
     14 H1           2.0200     3.1380     0.2710 h5         1 JXZ       0.046100
     15 H2          -1.9760    -2.9210     1.1220 hc         1 JXZ       0.059033
     16 H3          -2.3740    -2.6080    -0.5780 hc         1 JXZ       0.059033
     17 H4          -1.0670    -3.7300    -0.1650 hc         1 JXZ       0.059033
     18 H5          -2.3780     1.5040    -1.1410 h1         1 JXZ       0.031700
     19 H6          -3.1110    -0.1050    -1.3030 h1         1 JXZ       0.031700
     20 H7          -2.1100     1.1410     1.3180 h1         1 JXZ       0.078700
     21 H8          -2.8620    -0.4560     1.1710 h1         1 JXZ       0.078700
     22 H9           4.5160    -0.5230    -0.3830 hn         1 JXZ       0.506500
     23 H10          3.4210    -1.8630    -0.4420 hn         1 JXZ       0.506500
     24 H11         -4.6960     1.5860    -1.1160 ho         1 JXZ       0.451000
     25 CAF         -2.2470     0.2850     0.6450 c3         1 JXZ       0.076600
@<TRIPOS>BOND
     1     1     9 ar  
     2     1    10 ar  
     3     1    14 1   
     4     2     3 ar  
     5     2    10 ar  
     6     2    12 1   
     7     3     4 ar  
     8     3     5 1   
     9     4     9 ar  
    10     4    11 1   
    11     5     6 2   
    12     6     7 1   
    13     6    12 1   
    14     7    15 1   
    15     7    16 1   
    16     7    17 1   
    17     8    13 1   
    18     8    18 1   
    19     8    19 1   
    20     8    25 1   
    21    11    22 1   
    22    11    23 1   
    23    12    25 1   
    24    13    24 1   
    25    20    25 1   
    26    21    25 1   
@<TRIPOS>SUBSTRUCTURE
     1 JXZ         1 TEMP              0 ****  ****    0 ROOT
