@<TRIPOS>MOLECULE
JXZ
   25    26     1     0     0
SMALL
bcc


@<TRIPOS>ATOM
      1 C2           1.6950     2.0450     0.2180 ca         1 JXZ       0.706900
      2 C4           0.2500     0.3940     0.2570 ca         1 JXZ       0.453800
      3 C5           1.2220    -0.5450    -0.0470 ca         1 JXZ      -0.227200
      4 C6           2.5270    -0.0550    -0.2160 ca         1 JXZ       0.779200
      5 N7           0.6760    -1.8000    -0.1230 nc         1 JXZ      -0.554100
      6 C8          -0.5930    -1.6290     0.1280 cd         1 JXZ       0.407800
      7 CAA         -1.6170    -2.7020     0.1550 c3         1 JXZ      -0.110400
      8 CAE         -2.8800     0.7100    -0.6530 c3         1 JXZ       0.118400
      9 N1           2.7290     1.2610    -0.0760 nb         1 JXZ      -0.828000
     10 N3           0.4310     1.7040     0.4010 nb         1 JXZ      -0.747000
     11 N6           3.5640    -0.8460    -0.5070 nv         1 JXZ      -0.957500
     12 N9          -0.9090    -0.3150     0.3750 na         1 JXZ      -0.253000
     13 OAC         -4.1380     1.2320    -0.3070 oh         1 JXZ      -0.596800
     14 H1           1.9260     3.1010     0.3170 h5         1 JXZ       0.046100
     15 H2          -2.1250    -2.7480     1.1190 hc         1 JXZ       0.059033
     16 H3          -2.3780    -2.5500    -0.6120 hc         1 JXZ       0.059033
     17 H4          -1.1390    -3.6620    -0.0250 hc         1 JXZ       0.059033
     18 H5          -2.2390     1.4590    -1.1340 h1         1 JXZ       0.031700
     19 H6          -2.9620    -0.1380    -1.3450 h1         1 JXZ       0.031700
     20 H7          -2.0990     1.0810     1.3250 h1         1 JXZ       0.078700
     21 H8          -2.8290    -0.5070     1.1320 h1         1 JXZ       0.078700
     22 H9           4.4820    -0.4560    -0.6300 hn         1 JXZ       0.451300
     23 H10          3.4460    -1.8360    -0.6240 hn         1 JXZ       0.451300
     24 H11         -4.5800     1.5120    -1.1140 ho         1 JXZ       0.412000
     25 CAF         -2.2160     0.2450     0.6350 c3         1 JXZ       0.047300
@<TRIPOS>BOND
     1     1     9 ar  
     2     1    10 ar  
     3     1    14 1   
     4     2     3 ar  
     5     2    10 ar  
     6     2    12 1   
     7     3     4 ar  
     8     3     5 1   
     9     4     9 ar  
    10     4    11 1   
    11     5     6 2   
    12     6     7 1   
    13     6    12 1   
    14     7    15 1   
    15     7    16 1   
    16     7    17 1   
    17     8    13 1   
    18     8    18 1   
    19     8    19 1   
    20     8    25 1   
    21    11    22 1   
    22    11    23 1   
    23    12    25 1   
    24    13    24 1   
    25    20    25 1   
    26    21    25 1   
@<TRIPOS>SUBSTRUCTURE
     1 JXZ         1 TEMP              0 ****  ****    0 ROOT
