@<TRIPOS>MOLECULE
JY2
   29    30     1     0     0
SMALL
No Charge or Current Charge


@<TRIPOS>ATOM
      1 C2           2.0430     2.2600     0.3760 ca         1 JY2       0.179900
      2 C4           0.8490     0.3110     0.4250 ca         1 JY2       0.124500
      3 C5           1.9330    -0.3690    -0.0740 ca         1 JY2      -0.093600
      4 C6           3.1090     0.3640    -0.3390 ca         1 JY2       0.444900
      5 C8           0.4000    -1.8680     0.1580 cc         1 JY2       0.408800
      6 N1           3.1680     1.6870    -0.1160 nb         1 JY2      -0.300000
      7 CAA         -5.5090     1.1340    -1.5030 c1         1 JY2      -0.237000
      8 CAB         -0.3640    -3.1600     0.1610 c3         1 JY2      -0.110400
      9 CAD         -4.7750     0.8090    -0.5970 c1         1 JY2      -0.149100
     10 CAF         -3.8580     0.4100     0.4790 c3         1 JY2       0.010700
     11 CAG         -2.4400     0.0900    -0.0430 c3         1 JY2      -0.096400
     12 N3           0.8740     1.6380     0.6620 nb         1 JY2      -0.221000
     13 N6           4.2360    -0.2120    -0.8370 nv         1 JY2      -1.059900
     14 N7           1.6750    -1.7360    -0.2510 nd         1 JY2      -0.554100
     15 N9          -0.1200    -0.6390     0.5740 na         1 JY2      -0.279300
     16 H1           2.0820     3.3320     0.5610 h5         1 JY2       0.046100
     17 H2          -6.1500     1.4220    -2.3130 ha         1 JY2       0.255000
     18 H3          -1.2840    -3.0680    -0.4270 hc         1 JY2       0.058700
     19 H4           0.2330    -3.9730    -0.2680 hc         1 JY2       0.058700
     20 H5          -0.6380    -3.4440     1.1830 hc         1 JY2       0.058700
     21 H6          -3.8050     1.2190     1.2190 hc         1 JY2       0.057200
     22 H7          -4.2710    -0.4680     0.9900 hc         1 JY2       0.057200
     23 H8          -2.4990    -0.7140    -0.7870 hc         1 JY2       0.062200
     24 H9          -2.0330     0.9720    -0.5550 hc         1 JY2       0.062200
     25 H10         -1.3970     0.4760     1.8200 h1         1 JY2       0.065200
     26 H11         -1.8680    -1.2150     1.5930 h1         1 JY2       0.065200
     27 H12          4.9280     0.3920    -1.2730 hn         1 JY2       0.502000
     28 H13          4.1470    -1.1520    -1.2140 hn         1 JY2       0.502000
     29 CAH         -1.4700    -0.3310     1.0790 c3         1 JY2       0.081600
@<TRIPOS>BOND
     1     1     6 ar  
     2     1    12 ar  
     3     1    16 1   
     4     2     3 ar  
     5     2    12 ar  
     6     2    15 1   
     7     3     4 ar  
     8     3    14 1   
     9     4     6 ar  
    10     4    13 1   
    11     5     8 1   
    12     5    14 2   
    13     5    15 1   
    14     7     9 3   
    15     7    17 1   
    16     8    18 1   
    17     8    19 1   
    18     8    20 1   
    19     9    10 1   
    20    10    11 1   
    21    10    21 1   
    22    10    22 1   
    23    11    23 1   
    24    11    24 1   
    25    11    29 1   
    26    13    27 1   
    27    13    28 1   
    28    15    29 1   
    29    25    29 1   
    30    26    29 1   
@<TRIPOS>SUBSTRUCTURE
     1 JY2         1 TEMP              0 ****  ****    0 ROOT
