@<TRIPOS>MOLECULE
JY2
   29    30     1     0     0
SMALL
bcc


@<TRIPOS>ATOM
      1 C2           1.9870     2.2040     0.3830 ca         1 JY2       0.705900
      2 C4           0.8690     0.3140     0.4050 ca         1 JY2       0.452800
      3 C5           1.9360    -0.3950    -0.1220 ca         1 JY2      -0.224200
      4 C6           3.1000     0.3450    -0.3910 ca         1 JY2       0.773200
      5 C8           0.3800    -1.8090     0.1490 cc         1 JY2       0.408800
      6 N1           3.0880     1.6560    -0.1240 nb         1 JY2      -0.826000
      7 CAA         -5.4740     1.0930    -1.4650 c1         1 JY2      -0.149500
      8 CAB         -0.4250    -3.0540     0.1810 c3         1 JY2      -0.110400
      9 CAD         -4.7240     0.7630    -0.5840 c1         1 JY2      -0.149100
     10 CAF         -3.8010     0.3580     0.4670 c3         1 JY2       0.010700
     11 CAG         -2.3940     0.0870    -0.0690 c3         1 JY2      -0.096400
     12 N3           0.8390     1.6170     0.6770 nb         1 JY2      -0.747000
     13 N6           4.2140    -0.2110    -0.8810 nv         1 JY2      -0.949500
     14 N7           1.6110    -1.7170    -0.2740 nd         1 JY2      -0.554100
     15 N9          -0.1210    -0.6060     0.5810 na         1 JY2      -0.250000
     16 H1           2.0430     3.2700     0.5760 h5         1 JY2       0.046100
     17 H2          -6.1390     1.3890    -2.2430 ha         1 JY2       0.167500
     18 H3          -1.3120    -2.9780    -0.4510 hc         1 JY2       0.058700
     19 H4           0.1770    -3.8840    -0.1800 hc         1 JY2       0.058700
     20 H5          -0.7610    -3.2900     1.1920 hc         1 JY2       0.058700
     21 H6          -3.7640     1.1380     1.2320 hc         1 JY2       0.057200
     22 H7          -4.1920    -0.5380     0.9580 hc         1 JY2       0.057200
     23 H8          -2.4360    -0.6960    -0.8300 hc         1 JY2       0.062200
     24 H9          -2.0060     0.9850    -0.5530 hc         1 JY2       0.062200
     25 H10         -1.3900     0.4590     1.8090 h1         1 JY2       0.065200
     26 H11         -1.8330    -1.2200     1.5640 h1         1 JY2       0.065200
     27 H12          4.9760     0.3770    -1.1720 hn         1 JY2       0.446800
     28 H13          4.2070    -1.1610    -1.2100 hn         1 JY2       0.446800
     29 CAH         -1.4590    -0.3290     1.0580 c3         1 JY2       0.052300
@<TRIPOS>BOND
     1     1     6 ar  
     2     1    12 ar  
     3     1    16 1   
     4     2     3 ar  
     5     2    12 ar  
     6     2    15 1   
     7     3     4 ar  
     8     3    14 1   
     9     4     6 ar  
    10     4    13 1   
    11     5     8 1   
    12     5    14 2   
    13     5    15 1   
    14     7     9 3   
    15     7    17 1   
    16     8    18 1   
    17     8    19 1   
    18     8    20 1   
    19     9    10 1   
    20    10    11 1   
    21    10    21 1   
    22    10    22 1   
    23    11    23 1   
    24    11    24 1   
    25    11    29 1   
    26    13    27 1   
    27    13    28 1   
    28    15    29 1   
    29    25    29 1   
    30    26    29 1   
@<TRIPOS>SUBSTRUCTURE
     1 JY2         1 TEMP              0 ****  ****    0 ROOT
