@<TRIPOS>MOLECULE
JY3
   43    46     1     0     0
SMALL
No Charge or Current Charge


@<TRIPOS>ATOM
      1 C1          93.6880   -12.4500     9.1050 ca         1 JY3      -0.051200
      2 C2          93.1680   -12.8610     7.8750 ca         1 JY3      -0.185000
      3 C3          95.0020   -12.6730     9.4310 ca         1 JY3       0.083400
      4 N4          93.0730   -11.8080    10.1410 na         1 JY3      -0.305600
      5 C5          93.9820   -13.5050     6.9570 ca         1 JY3       0.104400
      6 S6          91.5300   -12.6640     7.2900 ss         1 JY3       0.015800
      7 N7          95.3040   -12.1870    10.6940 nc         1 JY3      -0.546100
      8 C8          95.8580   -13.3250     8.5250 ca         1 JY3      -0.049000
      9 C9          94.1160   -11.6840    11.0650 cd         1 JY3       0.409700
     10 C10         95.3380   -13.7440     7.2750 ca         1 JY3      -0.080000
     11 N11         93.3920   -13.8830     5.7550 nc         1 JY3      -0.517100
     12 C12         92.1050   -13.4920     5.8180 cd         1 JY3       0.389100
     13 S13         93.8590   -10.9010    12.6310 ss         1 JY3      -0.160200
     14 C14         92.0800   -10.3860    12.6100 c3         1 JY3      -0.024700
     15 C15         91.6930    -9.6800    13.9000 ca         1 JY3       0.372300
     16 C16         92.1870    -8.4000    14.1910 ca         1 JY3      -0.239000
     17 N17         90.8620   -10.3450    14.7290 nb         1 JY3      -0.680000
     18 C18         91.8080    -7.7740    15.3920 ca         1 JY3       0.190100
     19 C19         90.5040    -9.7450    15.8860 ca         1 JY3       0.364900
     20 C20         90.9500    -8.4660    16.2650 ca         1 JY3      -0.155300
     21 O21         92.2590    -6.5190    15.7600 os         1 JY3      -0.346100
     22 C22         90.5050    -7.8520    17.5880 c3         1 JY3      -0.030800
     23 C23         92.9610    -5.6320    14.8690 c3         1 JY3       0.178300
     24 C24         91.9540    -5.0670    13.8430 c3         1 JY3      -0.108600
     25 C25         93.5760    -4.5270    15.7470 c3         1 JY3      -0.108600
     26 H1          92.1150   -11.5020    10.2270 hn         1 JY3       0.361000
     27 H3          96.8990   -13.5020     8.7800 ha         1 JY3       0.136000
     28 H4          95.9820   -14.2490     6.5600 ha         1 JY3       0.135000
     29 H5          91.3940   -13.6540     5.0170 h5         1 JY3       0.059800
     30 H6          91.9130    -9.7040    11.7670 h1         1 JY3       0.075200
     31 H7          91.4510   -11.2740    12.4710 h1         1 JY3       0.075200
     32 H8          92.8580    -7.9250    13.4840 ha         1 JY3       0.129000
     33 H9          89.8350   -10.3130    16.5320 h4         1 JY3       0.023100
     34 H10         89.9720    -6.9070    17.4230 hc         1 JY3       0.046367
     35 H11         89.8330    -8.5180    18.1420 hc         1 JY3       0.046367
     36 H12         91.3670    -7.6410    18.2330 hc         1 JY3       0.046367
     37 H13         93.7790    -6.1500    14.3520 h1         1 JY3       0.047700
     38 H14         92.4440    -4.3340    13.1920 hc         1 JY3       0.049033
     39 H15         91.5450    -5.8590    13.2070 hc         1 JY3       0.049033
     40 H16         91.1200    -4.5690    14.3520 hc         1 JY3       0.049033
     41 H17         94.1270    -3.8080    15.1290 hc         1 JY3       0.049033
     42 H18         92.7980    -3.9850    16.2970 hc         1 JY3       0.049033
     43 H19         94.2770    -4.9590    16.4720 hc         1 JY3       0.049033
@<TRIPOS>BOND
     1     1     2 ar  
     2     1     3 ar  
     3     1     4 1   
     4     2     5 ar  
     5     2     6 1   
     6     3     7 1   
     7     3     8 ar  
     8     4     9 1   
     9     4    26 1   
    10     5    10 ar  
    11     5    11 1   
    12     6    12 1   
    13     7     9 2   
    14     8    10 ar  
    15     8    27 1   
    16     9    13 1   
    17    10    28 1   
    18    11    12 2   
    19    12    29 1   
    20    13    14 1   
    21    14    15 1   
    22    14    30 1   
    23    14    31 1   
    24    15    16 ar  
    25    15    17 ar  
    26    16    18 ar  
    27    16    32 1   
    28    17    19 ar  
    29    18    20 ar  
    30    18    21 1   
    31    19    20 ar  
    32    19    33 1   
    33    20    22 1   
    34    21    23 1   
    35    22    34 1   
    36    22    35 1   
    37    22    36 1   
    38    23    24 1   
    39    23    25 1   
    40    23    37 1   
    41    24    38 1   
    42    24    39 1   
    43    24    40 1   
    44    25    41 1   
    45    25    42 1   
    46    25    43 1   
@<TRIPOS>SUBSTRUCTURE
     1 JY3         1 TEMP              0 ****  ****    0 ROOT
