@<TRIPOS>MOLECULE
JY3
   43    46     1     0     0
SMALL
bcc


@<TRIPOS>ATOM
      1 C1          93.5060   -12.4660     9.1830 ca         1 JY3      -0.051200
      2 C2          93.1780   -12.6690     7.8490 ca         1 JY3      -0.058100
      3 C3          94.7790   -12.8000     9.6620 ca         1 JY3       0.083400
      4 N4          92.8350   -11.9610    10.2620 na         1 JY3      -0.255300
      5 C5          94.1520   -13.2200     7.0030 ca         1 JY3       0.104400
      6 S6          91.7330   -12.3630     6.9600 ss         1 JY3      -0.111100
      7 N7          94.8670   -12.4910    10.9960 nc         1 JY3      -0.546100
      8 C8          95.7480   -13.3520     8.8090 ca         1 JY3      -0.067000
      9 C9          93.6990   -12.0020    11.3120 cd         1 JY3       0.409700
     10 C10         95.4300   -13.5590     7.4860 ca         1 JY3      -0.098000
     11 N11         93.7400   -13.3830     5.7010 nc         1 JY3      -0.517100
     12 C12         92.5300   -12.9870     5.5450 cd         1 JY3       0.389100
     13 S13         93.3200   -11.5010    12.9340 ss         1 JY3      -0.112300
     14 C14         91.8320   -10.4680    12.6930 c3         1 JY3      -0.072600
     15 C15         91.5940    -9.7400    13.9830 ca         1 JY3       0.437600
     16 C16         92.0450    -8.4340    14.1310 ca         1 JY3      -0.322300
     17 N17         90.9750   -10.4110    14.9430 nb         1 JY3      -0.680000
     18 C18         91.8280    -7.7840    15.3430 ca         1 JY3       0.190100
     19 C19         90.7800    -9.7790    16.0970 ca         1 JY3       0.430200
     20 C20         91.1710    -8.4800    16.3710 ca         1 JY3      -0.220600
     21 O21         92.2050    -6.5390    15.6280 os         1 JY3      -0.322900
     22 C22         90.9070    -7.8440    17.6990 c3         1 JY3      -0.030800
     23 C23         92.8320    -5.7050    14.6410 c3         1 JY3       0.155100
     24 C24         91.8000    -5.1540    13.6730 c3         1 JY3      -0.108600
     25 C25         93.5380    -4.6060    15.4070 c3         1 JY3      -0.108600
     26 H1          91.8730   -11.6600    10.2790 hn         1 JY3       0.310700
     27 H3          96.7280   -13.6060     9.1910 ha         1 JY3       0.154000
     28 H4          96.1540   -13.9820     6.8030 ha         1 JY3       0.153000
     29 H5          91.9980   -13.0200     4.6030 h5         1 JY3       0.059800
     30 H6          92.0120    -9.7690    11.8760 h1         1 JY3       0.075200
     31 H7          90.9800   -11.1030    12.4520 h1         1 JY3       0.075200
     32 H8          92.5470    -7.9550    13.3020 ha         1 JY3       0.147000
     33 H9          90.2690   -10.3450    16.8700 h4         1 JY3       0.023100
     34 H10         90.2790    -6.9570    17.6030 hc         1 JY3       0.046367
     35 H11         90.4000    -8.5410    18.3640 hc         1 JY3       0.046367
     36 H12         91.8320    -7.5310    18.1860 hc         1 JY3       0.046367
     37 H13         93.5810    -6.2900    14.0980 h1         1 JY3       0.047700
     38 H14         92.2930    -4.5240    12.9320 hc         1 JY3       0.049033
     39 H15         91.2680    -5.9380    13.1340 hc         1 JY3       0.049033
     40 H16         91.0660    -4.5410    14.1990 hc         1 JY3       0.049033
     41 H17         94.0570    -3.9500    14.7090 hc         1 JY3       0.049033
     42 H18         92.8280    -4.0000    15.9730 hc         1 JY3       0.049033
     43 H19         94.2770    -5.0130    16.0960 hc         1 JY3       0.049033
@<TRIPOS>BOND
     1     1     2 ar  
     2     1     3 ar  
     3     1     4 1   
     4     2     5 ar  
     5     2     6 1   
     6     3     7 1   
     7     3     8 ar  
     8     4     9 1   
     9     4    26 1   
    10     5    10 ar  
    11     5    11 1   
    12     6    12 1   
    13     7     9 2   
    14     8    10 ar  
    15     8    27 1   
    16     9    13 1   
    17    10    28 1   
    18    11    12 2   
    19    12    29 1   
    20    13    14 1   
    21    14    15 1   
    22    14    30 1   
    23    14    31 1   
    24    15    16 ar  
    25    15    17 ar  
    26    16    18 ar  
    27    16    32 1   
    28    17    19 ar  
    29    18    20 ar  
    30    18    21 1   
    31    19    20 ar  
    32    19    33 1   
    33    20    22 1   
    34    21    23 1   
    35    22    34 1   
    36    22    35 1   
    37    22    36 1   
    38    23    24 1   
    39    23    25 1   
    40    23    37 1   
    41    24    38 1   
    42    24    39 1   
    43    24    40 1   
    44    25    41 1   
    45    25    42 1   
    46    25    43 1   
@<TRIPOS>SUBSTRUCTURE
     1 JY3         1 TEMP              0 ****  ****    0 ROOT
