@<TRIPOS>MOLECULE
JY4
   30    32     1     0     0
SMALL
bcc


@<TRIPOS>ATOM
      1 C4           1.8110    -0.1190    -0.0040 ca         1 JY4      -0.215300
      2 C5          -0.1000     1.2730     0.0120 ca         1 JY4       0.291600
      3 C6          -1.8570    -0.8950     0.0160 ca         1 JY4       0.155100
      4 C7          -2.3660     0.4410     0.0240 ca         1 JY4       0.106100
      5 C8           2.7940    -1.1030    -0.0110 cc         1 JY4      -0.080300
      6 C10          2.7250    -2.5860    -0.0110 c3         1 JY4      -0.031900
      7 C1          -0.4990    -1.1230     0.0060 ca         1 JY4      -0.214000
      8 C11         -2.3780    -3.2010     0.0090 c3         1 JY4       0.120700
      9 C12         -4.2720     1.8300     0.0340 c3         1 JY4       0.119700
     10 C2          -1.4940     1.4960     0.0220 ca         1 JY4      -0.209300
     11 C3           0.3970    -0.0430     0.0040 ca         1 JY4      -0.026300
     12 C9           2.5280     1.0960    -0.0060 ca         1 JY4       0.209300
     13 N13          0.6910     2.3970     0.0090 nb         1 JY4      -0.276000
     14 N14          3.9480    -0.4170    -0.0170 na         1 JY4       0.062800
     15 N15          1.9600     2.3300     0.0010 nb         1 JY4      -0.251000
     16 N16          3.8430     0.9010    -0.0140 nc         1 JY4      -0.224400
     17 O17         -2.7910    -1.8460     0.0180 os         1 JY4      -0.290900
     18 O18         -3.7030     0.5350     0.0340 os         1 JY4      -0.296900
     19 H1           2.2120    -2.9530     0.8780 hc         1 JY4       0.055033
     20 H2           2.1830    -2.9510    -0.8840 hc         1 JY4       0.055033
     21 H3           3.7200    -3.0280    -0.0280 hc         1 JY4       0.055033
     22 H4          -0.1110    -2.1320    -0.0020 ha         1 JY4       0.140000
     23 H5          -1.7970    -3.4400    -0.8850 h1         1 JY4       0.043367
     24 H6          -1.7900    -3.4490     0.8960 h1         1 JY4       0.043367
     25 H7          -3.2860    -3.7980     0.0090 h1         1 JY4       0.043367
     26 H8          -3.9820     2.3990     0.9200 h1         1 JY4       0.043700
     27 H9          -3.9880     2.3960    -0.8580 h1         1 JY4       0.043700
     28 H10         -5.3510     1.6940     0.0380 h1         1 JY4       0.043700
     29 H11         -1.8390     2.5220     0.0280 ha         1 JY4       0.160000
     30 H12          4.8700    -0.8310    -0.0220 hn         1 JY4       0.323700
@<TRIPOS>BOND
     1     1     5 2   
     2     1    11 ar  
     3     1    12 ar  
     4     2    10 ar  
     5     2    11 ar  
     6     2    13 ar  
     7     3     4 ar  
     8     3     7 ar  
     9     3    17 1   
    10     4    10 ar  
    11     4    18 1   
    12     5     6 1   
    13     5    14 1   
    14     6    19 1   
    15     6    20 1   
    16     6    21 1   
    17     7    11 ar  
    18     7    22 1   
    19     8    17 1   
    20     8    23 1   
    21     8    24 1   
    22     8    25 1   
    23     9    18 1   
    24     9    26 1   
    25     9    27 1   
    26     9    28 1   
    27    10    29 1   
    28    12    15 ar  
    29    12    16 2   
    30    13    15 ar  
    31    14    16 1   
    32    14    30 1   
@<TRIPOS>SUBSTRUCTURE
     1 JY4         1 TEMP              0 ****  ****    0 ROOT
