@<TRIPOS>MOLECULE
JY4
   30    32     1     0     0
SMALL
No Charge or Current Charge


@<TRIPOS>ATOM
      1 C4           1.8470    -0.0110    -0.0030 ca         1 JY4      -0.150000
      2 C5          -0.1070     1.3890     0.0110 ca         1 JY4       0.161000
      3 C6          -1.8210    -0.8690     0.0140 ca         1 JY4       0.155100
      4 C7          -2.3650     0.4360     0.0210 ca         1 JY4       0.106100
      5 C8           2.7700    -1.1070    -0.0110 cc         1 JY4      -0.080300
      6 C10          2.5310    -2.5950    -0.0130 c3         1 JY4      -0.031900
      7 C1          -0.4190    -1.0440     0.0060 ca         1 JY4      -0.196000
      8 C11         -2.2360    -3.3120     0.0100 c3         1 JY4       0.143900
      9 C12         -4.3930     1.8630     0.0350 c3         1 JY4       0.142900
     10 C2          -1.5030     1.5550     0.0190 ca         1 JY4      -0.126000
     11 C3           0.4360     0.0770     0.0050 ca         1 JY4       0.039000
     12 C9           2.6250     1.1350    -0.0040 ca         1 JY4       0.144000
     13 N13          0.7040     2.4780     0.0090 nb         1 JY4      -0.276000
     14 N14          4.0370    -0.5430    -0.0160 na         1 JY4       0.012500
     15 N15          2.0470     2.3550     0.0020 nb         1 JY4      -0.251000
     16 N16          3.9960     0.8510    -0.0120 nc         1 JY4      -0.224400
     17 O17         -2.6910    -1.9470     0.0160 os         1 JY4      -0.314100
     18 O18         -3.7450     0.5780     0.0290 os         1 JY4      -0.320100
     19 H1           1.9750    -2.9050     0.8790 hc         1 JY4       0.055033
     20 H2           1.9650    -2.9010    -0.9020 hc         1 JY4       0.055033
     21 H3           3.4760    -3.1510    -0.0200 hc         1 JY4       0.055033
     22 H4          -0.0000    -2.0390     0.0020 ha         1 JY4       0.122000
     23 H5          -1.6380    -3.5200    -0.8860 h1         1 JY4       0.043367
     24 H6          -1.6290    -3.5250     0.8990 h1         1 JY4       0.043367
     25 H7          -3.0930    -3.9970     0.0130 h1         1 JY4       0.043367
     26 H8          -4.1130     2.4370     0.9280 h1         1 JY4       0.043700
     27 H9          -4.1230     2.4420    -0.8570 h1         1 JY4       0.043700
     28 H10         -5.4830     1.7380     0.0410 h1         1 JY4       0.043700
     29 H11         -1.8970     2.5660     0.0240 ha         1 JY4       0.142000
     30 H12          4.9230    -1.0390    -0.0220 hn         1 JY4       0.374000
@<TRIPOS>BOND
     1     1     5 2   
     2     1    11 ar  
     3     1    12 ar  
     4     2    10 ar  
     5     2    11 ar  
     6     2    13 ar  
     7     3     4 ar  
     8     3     7 ar  
     9     3    17 1   
    10     4    10 ar  
    11     4    18 1   
    12     5     6 1   
    13     5    14 1   
    14     6    19 1   
    15     6    20 1   
    16     6    21 1   
    17     7    11 ar  
    18     7    22 1   
    19     8    17 1   
    20     8    23 1   
    21     8    24 1   
    22     8    25 1   
    23     9    18 1   
    24     9    26 1   
    25     9    27 1   
    26     9    28 1   
    27    10    29 1   
    28    12    15 ar  
    29    12    16 2   
    30    13    15 ar  
    31    14    16 1   
    32    14    30 1   
@<TRIPOS>SUBSTRUCTURE
     1 JY4         1 TEMP              0 ****  ****    0 ROOT
