@<TRIPOS>MOLECULE
JY5
   35    37     1     0     0
SMALL
No Charge or Current Charge


@<TRIPOS>ATOM
      1 CAQ          1.0980     1.7420     0.0770 cg         1 JY5      -0.104200
      2 CAR          2.1860     2.2850     0.0910 c1         1 JY5      -0.088100
      3 CAS          3.5190     2.8930     0.1180 c3         1 JY5       0.248700
      4 C2          -3.7720    -1.5160     0.1480 ca         1 JY5       0.185900
      5 C4          -1.6980    -0.5520     0.1430 ca         1 JY5       0.138500
      6 C5          -2.2750     0.6920     0.0500 ca         1 JY5      -0.098600
      7 C6          -3.6820     0.7670     0.0140 ca         1 JY5       0.453900
      8 C8          -0.1550     1.0650     0.0630 cc         1 JY5       0.485700
      9 CAK          0.6390    -1.4040     0.0950 c6         1 JY5       0.321300
     10 CAL          1.4880    -1.3930    -1.2040 c6         1 JY5      -0.123400
     11 CAM          2.5580    -2.5110    -1.1480 c6         1 JY5      -0.071400
     12 CAN          3.3700    -2.4180     0.1690 c6         1 JY5      -0.120400
     13 CAO          2.4240    -2.3800     1.3940 c6         1 JY5       0.169600
     14 N1          -4.4400    -0.3400     0.0590 nb         1 JY5      -0.305000
     15 N3          -2.4280    -1.6840     0.1930 nb         1 JY5      -0.226000
     16 N7          -1.3270     1.7230     0.0030 nd         1 JY5      -0.535100
     17 N9          -0.3530    -0.3150     0.1590 na         1 JY5      -0.265300
     18 OAP          1.4860    -1.2930     1.2560 os         1 JY5      -0.463000
     19 OAT          3.9020     3.3160    -1.1960 oh         1 JY5      -0.651000
     20 H1           3.5030     3.7470     0.8090 h1         1 JY5       0.040700
     21 H2           4.2340     2.1560     0.5100 h1         1 JY5       0.040700
     22 H3          -4.3770    -2.4200     0.1870 h5         1 JY5       0.046100
     23 H4           0.0770    -2.3490     0.1480 h2         1 JY5       0.077700
     24 H5           0.8370    -1.5360    -2.0770 hc         1 JY5       0.066700
     25 H6           1.9870    -0.4260    -1.3390 hc         1 JY5       0.066700
     26 H7           2.0690    -3.4940    -1.2120 hc         1 JY5       0.046200
     27 H8           3.2300    -2.4380    -2.0150 hc         1 JY5       0.046200
     28 H9           4.0550    -3.2730     0.2520 hc         1 JY5       0.059200
     29 H10          3.9940    -1.5140     0.1610 hc         1 JY5       0.059200
     30 H11          1.8730    -3.3280     1.4830 h1         1 JY5       0.048700
     31 H12          3.0070    -2.2350     2.3150 h1         1 JY5       0.048700
     32 H13         -5.3180     1.9220    -0.3950 hn         1 JY5       0.508000
     33 H14         -3.8090     2.7680    -0.3360 hn         1 JY5       0.508000
     34 H15          4.7970     3.7150    -1.1120 ho         1 JY5       0.448000
     35 N6          -4.3520     1.9470    -0.0790 nv         1 JY5      -1.062900
@<TRIPOS>BOND
     1     1     2 3   
     2     1     8 1   
     3     2     3 1   
     4     3    19 1   
     5     3    20 1   
     6     3    21 1   
     7     4    14 ar  
     8     4    15 ar  
     9     4    22 1   
    10     5     6 ar  
    11     5    15 ar  
    12     5    17 1   
    13     6     7 ar  
    14     6    16 1   
    15     7    14 ar  
    16     7    35 1   
    17     8    16 2   
    18     8    17 1   
    19     9    10 1   
    20     9    17 1   
    21     9    18 1   
    22     9    23 1   
    23    10    11 1   
    24    10    24 1   
    25    10    25 1   
    26    11    12 1   
    27    11    26 1   
    28    11    27 1   
    29    12    13 1   
    30    12    28 1   
    31    12    29 1   
    32    13    18 1   
    33    13    30 1   
    34    13    31 1   
    35    19    34 1   
    36    32    35 1   
    37    33    35 1   
@<TRIPOS>SUBSTRUCTURE
     1 JY5         1 TEMP              0 ****  ****    0 ROOT
