@<TRIPOS>MOLECULE
JY5
   35    37     1     0     0
SMALL
abcg2


@<TRIPOS>ATOM
      1 CAQ          1.0440     1.6390     0.0590 cg         1 JY5      -0.104200
      2 CAR          2.1430     2.1250     0.0780 c1         1 JY5      -0.088100
      3 CAS          3.4880     2.6820     0.1060 c3         1 JY5       0.248700
      4 C2          -3.7050    -1.5460     0.0120 ca         1 JY5       0.185900
      5 C4          -1.7460    -0.5520     0.0090 ca         1 JY5       0.138500
      6 C5          -2.3230     0.7090     0.0490 ca         1 JY5      -0.098600
      7 C6          -3.7310     0.7540     0.0700 ca         1 JY5       0.453900
      8 C8          -0.2340     1.0310     0.0370 cc         1 JY5       0.485700
      9 CAK          0.6250    -1.3560    -0.0080 c6         1 JY5       0.321300
     10 CAL          1.4530    -1.3390    -1.2880 c6         1 JY5      -0.123400
     11 CAM          2.6120    -2.3240    -1.1660 c6         1 JY5      -0.071400
     12 CAN          3.3970    -2.0350     0.1070 c6         1 JY5      -0.120400
     13 CAO          2.4560    -2.0590     1.2980 c6         1 JY5       0.169600
     14 N1          -4.3930    -0.4080     0.0500 nb         1 JY5      -0.305000
     15 N3          -2.3940    -1.7140    -0.0120 nb         1 JY5      -0.226000
     16 N7          -1.3670     1.6820     0.0670 nd         1 JY5      -0.535100
     17 N9          -0.4010    -0.3360    -0.0040 na         1 JY5      -0.265300
     18 OAP          1.3860    -1.1410     1.1450 os         1 JY5      -0.463000
     19 OAT          4.3330     1.8490    -0.6500 oh         1 JY5      -0.651000
     20 H1           3.4510     3.7070    -0.2860 h1         1 JY5       0.040700
     21 H2           3.8080     2.7610     1.1520 h1         1 JY5       0.040700
     22 H3          -4.3020    -2.4510    -0.0000 h5         1 JY5       0.046100
     23 H4           0.0910    -2.3150     0.0520 h2         1 JY5       0.077700
     24 H5           0.8020    -1.5960    -2.1260 hc         1 JY5       0.066700
     25 H6           1.8450    -0.3370    -1.4720 hc         1 JY5       0.066700
     26 H7           2.2270    -3.3490    -1.1360 hc         1 JY5       0.046200
     27 H8           3.2520    -2.2550    -2.0470 hc         1 JY5       0.046200
     28 H9           4.1840    -2.7760     0.2600 hc         1 JY5       0.059200
     29 H10          3.8780    -1.0550     0.0360 hc         1 JY5       0.059200
     30 H11          2.0610    -3.0760     1.4360 h1         1 JY5       0.048700
     31 H12          2.9670    -1.7770     2.2190 h1         1 JY5       0.048700
     32 H13         -5.4200     1.8850     0.1090 hn         1 JY5       0.508000
     33 H14         -3.9460     2.7850     0.1070 hn         1 JY5       0.508000
     34 H15          5.2230     2.2110    -0.5940 ho         1 JY5       0.448000
     35 N6          -4.4140     1.8960     0.1120 nv         1 JY5      -1.062900
@<TRIPOS>BOND
     1     1     2 3   
     2     1     8 1   
     3     2     3 1   
     4     3    19 1   
     5     3    20 1   
     6     3    21 1   
     7     4    14 ar  
     8     4    15 ar  
     9     4    22 1   
    10     5     6 ar  
    11     5    15 ar  
    12     5    17 1   
    13     6     7 ar  
    14     6    16 1   
    15     7    14 ar  
    16     7    35 1   
    17     8    16 2   
    18     8    17 1   
    19     9    10 1   
    20     9    17 1   
    21     9    18 1   
    22     9    23 1   
    23    10    11 1   
    24    10    24 1   
    25    10    25 1   
    26    11    12 1   
    27    11    26 1   
    28    11    27 1   
    29    12    13 1   
    30    12    28 1   
    31    12    29 1   
    32    13    18 1   
    33    13    30 1   
    34    13    31 1   
    35    19    34 1   
    36    32    35 1   
    37    33    35 1   
@<TRIPOS>SUBSTRUCTURE
     1 JY5         1 TEMP              0 ****  ****    0 ROOT
