@<TRIPOS>MOLECULE
JY6
   30    33     1     0     0
SMALL
No Charge or Current Charge


@<TRIPOS>ATOM
      1 N1         161.7500   164.0740   162.9020 ns         1 JY6      -0.392100
      2 C7         160.9250   164.4650   159.4010 cc         1 JY6       0.013700
      3 C8         160.0690   164.0170   158.2750 c          1 JY6       0.591900
      4 C9         160.5770   164.8840   157.1810 ca         1 JY6      -0.258600
      5 C1         159.2270   161.4020   163.5470 ca         1 JY6      -0.075000
      6 C5         159.2280   162.1960   161.2190 ca         1 JY6      -0.047000
      7 C6         161.0260   164.1030   160.7550 cd         1 JY6      -0.173400
      8 C4         160.2640   163.0930   161.5440 ca         1 JY6      -0.078800
      9 C3         160.7480   163.1200   162.8460 ca         1 JY6       0.052600
     10 C2         160.2630   162.2990   163.8670 ca         1 JY6      -0.149000
     11 N          161.8190   165.4630   159.0260 na         1 JY6      -0.281700
     12 C          158.7150   161.3530   162.2300 ca         1 JY6      -0.143000
     13 O          159.1800   163.1820   158.1900 o          1 JY6      -0.486100
     14 C10        160.1720   164.9470   155.8400 ca         1 JY6       0.005000
     15 C11        160.8260   165.8700   154.9980 ca         1 JY6      -0.165000
     16 C12        161.8570   166.7010   155.4990 ca         1 JY6      -0.042000
     17 C13        162.2470   166.6190   156.8530 ca         1 JY6      -0.159000
     18 C14        161.5900   165.6990   157.6780 ca         1 JY6       0.065800
     19 C15        162.0020   164.7190   161.7290 c          1 JY6       0.569200
     20 H9         162.2630   164.2850   163.7480 hn         1 JY6       0.341500
     21 H1         158.8200   160.7450   164.3130 ha         1 JY6       0.114000
     22 H3         158.8070   162.1250   160.2270 ha         1 JY6       0.143000
     23 H2         160.6700   162.3520   164.8740 ha         1 JY6       0.119000
     24 H8         162.5010   165.9220   159.6250 hn         1 JY6       0.392000
     25 H          157.9150   160.6560   161.9920 ha         1 JY6       0.117000
     26 H4         159.3790   164.3050   155.4600 ha         1 JY6       0.131000
     27 H5         160.5350   165.9440   153.9520 ha         1 JY6       0.122000
     28 H6         162.3520   167.4080   154.8360 ha         1 JY6       0.117000
     29 H7         163.0380   167.2550   157.2430 ha         1 JY6       0.130000
     30 O1         162.8430   165.5930   161.5660 o          1 JY6      -0.572000
@<TRIPOS>BOND
     1     1     9 1   
     2     1    19 1   
     3     1    20 1   
     4     2     3 1   
     5     2     7 2   
     6     2    11 1   
     7     3     4 1   
     8     3    13 2   
     9     4    14 ar  
    10     4    18 ar  
    11     5    10 ar  
    12     5    12 ar  
    13     5    21 1   
    14     6     8 ar  
    15     6    12 ar  
    16     6    22 1   
    17     7     8 1   
    18     7    19 1   
    19     8     9 ar  
    20     9    10 ar  
    21    10    23 1   
    22    11    18 1   
    23    11    24 1   
    24    12    25 1   
    25    14    15 ar  
    26    14    26 1   
    27    15    16 ar  
    28    15    27 1   
    29    16    17 ar  
    30    16    28 1   
    31    17    18 ar  
    32    17    29 1   
    33    19    30 2   
@<TRIPOS>SUBSTRUCTURE
     1 JY6         1 TEMP              0 ****  ****    0 ROOT
