@<TRIPOS>MOLECULE
JY6
   30    33     1     0     0
SMALL
abcg2


@<TRIPOS>ATOM
      1 N1         161.7420   164.0550   162.9430 ns         1 JY6      -0.392100
      2 C7         161.0210   164.5210   159.4900 cc         1 JY6       0.013700
      3 C8         160.1580   164.0760   158.3260 c          1 JY6       0.591900
      4 C9         160.5970   164.8930   157.2010 ca         1 JY6      -0.258600
      5 C1         159.2160   161.4120   163.4860 ca         1 JY6      -0.075000
      6 C5         159.2260   162.2030   161.1990 ca         1 JY6      -0.047000
      7 C6         161.0200   164.0870   160.7800 cd         1 JY6      -0.173400
      8 C4         160.2500   163.0920   161.5120 ca         1 JY6      -0.078800
      9 C3         160.7350   163.1130   162.8340 ca         1 JY6       0.052600
     10 C2         160.2390   162.2920   163.8260 ca         1 JY6      -0.149000
     11 N          161.8460   165.4860   158.9990 na         1 JY6      -0.281700
     12 C          158.7170   161.3710   162.1900 ca         1 JY6      -0.143000
     13 O          159.2980   163.2270   158.3440 o          1 JY6      -0.486100
     14 C10        160.1710   164.9350   155.8820 ca         1 JY6       0.005000
     15 C11        160.7880   165.8320   155.0240 ca         1 JY6      -0.165000
     16 C12        161.8100   166.6610   155.4950 ca         1 JY6      -0.042000
     17 C13        162.2440   166.6260   156.8150 ca         1 JY6      -0.159000
     18 C14        161.6170   165.7260   157.6600 ca         1 JY6       0.065800
     19 C15        161.9720   164.6820   161.7600 c          1 JY6       0.569200
     20 H9         162.2470   164.2600   163.7920 hn         1 JY6       0.341500
     21 H1         158.8070   160.7560   164.2430 ha         1 JY6       0.114000
     22 H3         158.8260   162.1510   160.2010 ha         1 JY6       0.143000
     23 H2         160.6330   162.3310   164.8330 ha         1 JY6       0.119000
     24 H8         162.5300   165.9610   159.5710 hn         1 JY6       0.392000
     25 H          157.9200   160.6820   161.9440 ha         1 JY6       0.117000
     26 H4         159.3780   164.2850   155.5350 ha         1 JY6       0.131000
     27 H5         160.4830   165.8930   153.9890 ha         1 JY6       0.122000
     28 H6         162.2810   167.3550   154.8110 ha         1 JY6       0.117000
     29 H7         163.0370   167.2750   157.1620 ha         1 JY6       0.130000
     30 O1         162.8000   165.5580   161.5660 o          1 JY6      -0.572000
@<TRIPOS>BOND
     1     1     9 1   
     2     1    19 1   
     3     1    20 1   
     4     2     3 1   
     5     2     7 2   
     6     2    11 1   
     7     3     4 1   
     8     3    13 2   
     9     4    14 ar  
    10     4    18 ar  
    11     5    10 ar  
    12     5    12 ar  
    13     5    21 1   
    14     6     8 ar  
    15     6    12 ar  
    16     6    22 1   
    17     7     8 1   
    18     7    19 1   
    19     8     9 ar  
    20     9    10 ar  
    21    10    23 1   
    22    11    18 1   
    23    11    24 1   
    24    12    25 1   
    25    14    15 ar  
    26    14    26 1   
    27    15    16 ar  
    28    15    27 1   
    29    16    17 ar  
    30    16    28 1   
    31    17    18 ar  
    32    17    29 1   
    33    19    30 2   
@<TRIPOS>SUBSTRUCTURE
     1 JY6         1 TEMP              0 ****  ****    0 ROOT
