@<TRIPOS>MOLECULE
JY7
   38    41     1     0     0
SMALL
abcg2


@<TRIPOS>ATOM
      1 N1         -21.6510    14.3860   -35.4380 nb         1 JY7      -0.230000
      2 N3         -20.6000    12.7560   -32.4750 na         1 JY7      -0.009100
      3 C4         -19.9360    11.4420   -36.9680 ca         1 JY7      -0.207000
      4 C5         -20.4040    12.3240   -35.9810 ca         1 JY7       0.090000
      5 C6         -21.1350    13.5000   -36.3390 ca         1 JY7       0.113000
      6 C7         -20.2340    12.1620   -34.5880 ca         1 JY7      -0.227900
      7 C8         -20.8320    13.1230   -33.7610 ca         1 JY7       0.301500
      8 C10        -21.0050    13.4450   -31.2640 c3         1 JY7       0.085900
      9 C13        -16.9510     8.8730   -34.8200 ca         1 JY7       0.327900
     10 C15        -19.3650     8.7700   -33.6060 ca         1 JY7      -0.134000
     11 C17        -22.2930    15.2220   -39.3840 c3         1 JY7       0.142900
     12 C1         -20.1920    11.7650   -38.2720 ca         1 JY7       0.251000
     13 C11        -18.8620    10.0180   -33.9690 ca         1 JY7      -0.064900
     14 C12        -17.6080    10.0830   -34.5920 ca         1 JY7      -0.106300
     15 C14        -18.6230     7.6320   -33.8850 ca         1 JY7       0.325900
     16 C16        -16.9620    11.3820   -34.9790 c3         1 JY7      -0.047800
     17 C2         -20.8840    12.9070   -38.6870 ca         1 JY7      -0.285000
     18 C3         -21.3610    13.7810   -37.7300 ca         1 JY7       0.237100
     19 C9         -19.6420    11.2380   -33.6860 cc         1 JY7       0.408500
     20 F1         -19.7520    10.9350   -39.2400 f          1 JY7      -0.172000
     21 N2         -21.5200    14.2110   -34.1580 nb         1 JY7      -0.314000
     22 N4         -19.8830    11.6150   -32.4320 nd         1 JY7      -0.494100
     23 N5         -17.4310     7.6730   -34.4870 nb         1 JY7      -0.654000
     24 O1         -22.0400    14.9000   -38.0110 os         1 JY7      -0.307100
     25 H1         -19.4050    10.5370   -36.7200 ha         1 JY7       0.151000
     26 H2         -20.6540    12.8580   -30.4210 h1         1 JY7       0.064700
     27 H3         -20.5600    14.4390   -31.2330 h1         1 JY7       0.064700
     28 H4         -22.0900    13.5310   -31.2290 h1         1 JY7       0.064700
     29 H5         -15.9740     8.8860   -35.2930 h4         1 JY7       0.020100
     30 H6         -20.3290     8.6900   -33.1220 ha         1 JY7       0.131000
     31 H7         -22.8450    16.1570   -39.3670 h1         1 JY7       0.051700
     32 H8         -21.3550    15.3520   -39.9280 h1         1 JY7       0.051700
     33 H9         -22.8930    14.4430   -39.8580 h1         1 JY7       0.051700
     34 H10        -19.0010     6.6520   -33.6160 h4         1 JY7       0.023100
     35 H11        -17.4530    11.8310   -35.8450 hc         1 JY7       0.049700
     36 H12        -17.0180    12.1060   -34.1640 hc         1 JY7       0.049700
     37 H13        -15.9140    11.2260   -35.2340 hc         1 JY7       0.049700
     38 H14        -21.0300    13.0720   -39.7430 ha         1 JY7       0.143000
@<TRIPOS>BOND
     1     1     5 ar  
     2     1    21 ar  
     3     2     7 1   
     4     2     8 1   
     5     2    22 1   
     6     3     4 ar  
     7     3    12 ar  
     8     3    25 1   
     9     4     5 ar  
    10     4     6 ar  
    11     5    18 ar  
    12     6     7 ar  
    13     6    19 1   
    14     7    21 ar  
    15     8    26 1   
    16     8    27 1   
    17     8    28 1   
    18     9    14 ar  
    19     9    23 ar  
    20     9    29 1   
    21    10    13 ar  
    22    10    15 ar  
    23    10    30 1   
    24    11    24 1   
    25    11    31 1   
    26    11    32 1   
    27    11    33 1   
    28    12    17 ar  
    29    12    20 1   
    30    13    14 ar  
    31    13    19 1   
    32    14    16 1   
    33    15    23 ar  
    34    15    34 1   
    35    16    35 1   
    36    16    36 1   
    37    16    37 1   
    38    17    18 ar  
    39    17    38 1   
    40    18    24 1   
    41    19    22 2   
@<TRIPOS>SUBSTRUCTURE
     1 JY7         1 TEMP              0 ****  ****    0 ROOT
