@<TRIPOS>MOLECULE
JY7
   38    41     1     0     0
SMALL
No Charge or Current Charge


@<TRIPOS>ATOM
      1 N1         -21.5770    14.4530   -35.4160 nb         1 JY7      -0.230000
      2 N3         -20.5200    12.7370   -32.3410 na         1 JY7      -0.009100
      3 C4         -20.0500    11.3650   -36.7740 ca         1 JY7      -0.207000
      4 C5         -20.4710    12.3440   -35.8540 ca         1 JY7       0.090000
      5 C6         -21.1300    13.5230   -36.3100 ca         1 JY7       0.113000
      6 C7         -20.2940    12.2270   -34.4580 ca         1 JY7      -0.227900
      7 C8         -20.7940    13.1870   -33.6210 ca         1 JY7       0.301500
      8 C10        -20.9180    13.4710   -31.1300 c3         1 JY7       0.085900
      9 C13        -16.9750     9.0180   -35.0220 ca         1 JY7       0.327900
     10 C15        -19.4430     8.7730   -33.8470 ca         1 JY7      -0.134000
     11 C17        -22.1960    15.1250   -39.5360 c3         1 JY7       0.142900
     12 C1         -20.2510    11.5620   -38.1430 ca         1 JY7       0.251000
     13 C11        -18.9240    10.0700   -34.0250 ca         1 JY7      -0.064900
     14 C12        -17.6480    10.1930   -34.6230 ca         1 JY7      -0.106300
     15 C14        -18.6970     7.6630   -34.2750 ca         1 JY7       0.325900
     16 C16        -16.9900    11.5550   -34.8300 c3         1 JY7      -0.047800
     17 C2         -20.8750    12.7200   -38.6150 ca         1 JY7      -0.285000
     18 C3         -21.3210    13.7020   -37.7040 ca         1 JY7       0.237100
     19 C9         -19.6920    11.2340   -33.5870 cc         1 JY7       0.408500
     20 F1         -19.8410    10.6210   -39.0200 f          1 JY7      -0.172000
     21 N2         -21.4200    14.2890   -34.0850 nb         1 JY7      -0.314000
     22 N4         -19.8460    11.5240   -32.2910 nd         1 JY7      -0.494100
     23 N5         -17.4820     7.7750   -34.8570 nb         1 JY7      -0.654000
     24 O1         -21.9560    14.8540   -38.1440 os         1 JY7      -0.307100
     25 H1         -19.5790    10.4450   -36.4540 ha         1 JY7       0.151000
     26 H2         -20.5880    12.9270   -30.2360 h1         1 JY7       0.064700
     27 H3         -20.4590    14.4670   -31.1370 h1         1 JY7       0.064700
     28 H4         -22.0100    13.5750   -31.1060 h1         1 JY7       0.064700
     29 H5         -15.9910     9.0740   -35.4880 h4         1 JY7       0.020100
     30 H6         -20.4150     8.6220   -33.3860 ha         1 JY7       0.131000
     31 H7         -22.7080    16.0880   -39.6520 h1         1 JY7       0.051700
     32 H8         -21.2520    15.1740   -40.0930 h1         1 JY7       0.051700
     33 H9         -22.8300    14.3480   -39.9810 h1         1 JY7       0.051700
     34 H10        -19.0850     6.6530   -34.1490 h4         1 JY7       0.023100
     35 H11        -17.4660    12.1060   -35.6490 hc         1 JY7       0.049700
     36 H12        -17.0570    12.1720   -33.9260 hc         1 JY7       0.049700
     37 H13        -15.9260    11.4560   -35.0760 hc         1 JY7       0.049700
     38 H14        -21.0090    12.8310   -39.6860 ha         1 JY7       0.143000
@<TRIPOS>BOND
     1     1     5 ar  
     2     1    21 ar  
     3     2     7 1   
     4     2     8 1   
     5     2    22 1   
     6     3     4 ar  
     7     3    12 ar  
     8     3    25 1   
     9     4     5 ar  
    10     4     6 ar  
    11     5    18 ar  
    12     6     7 ar  
    13     6    19 1   
    14     7    21 ar  
    15     8    26 1   
    16     8    27 1   
    17     8    28 1   
    18     9    14 ar  
    19     9    23 ar  
    20     9    29 1   
    21    10    13 ar  
    22    10    15 ar  
    23    10    30 1   
    24    11    24 1   
    25    11    31 1   
    26    11    32 1   
    27    11    33 1   
    28    12    17 ar  
    29    12    20 1   
    30    13    14 ar  
    31    13    19 1   
    32    14    16 1   
    33    15    23 ar  
    34    15    34 1   
    35    16    35 1   
    36    16    36 1   
    37    16    37 1   
    38    17    18 ar  
    39    17    38 1   
    40    18    24 1   
    41    19    22 2   
@<TRIPOS>SUBSTRUCTURE
     1 JY7         1 TEMP              0 ****  ****    0 ROOT
