@<TRIPOS>MOLECULE
JY8
   24    25     1     0     0
SMALL
No Charge or Current Charge


@<TRIPOS>ATOM
      1 C4           0.0180    -0.5740     0.1480 ca         1 JY8       0.123500
      2 C5          -0.7450     0.5550    -0.0220 ca         1 JY8      -0.094600
      3 C2          -1.8680    -1.8650     0.0730 ca         1 JY8       0.177900
      4 N1          -2.7110    -0.8170    -0.0970 nb         1 JY8      -0.300000
      5 C6          -2.1420     0.3980    -0.1470 ca         1 JY8       0.444900
      6 C8           1.2820     1.2760     0.1190 cc         1 JY8       0.406800
      7 C81          2.5020     2.1510     0.1620 c3         1 JY8      -0.109400
      8 C92          3.0300    -1.5140    -0.9230 c3         1 JY8      -0.113100
      9 N3          -0.5200    -1.8090     0.1990 nb         1 JY8      -0.221000
     10 N6          -2.9880     1.4500    -0.3150 nv         1 JY8      -1.060900
     11 N7           0.0250     1.7270    -0.0410 nd         1 JY8      -0.556100
     12 N9           1.3020    -0.1160     0.2370 na         1 JY8      -0.278300
     13 H1          -2.3200    -2.8550     0.1130 h5         1 JY8       0.045100
     14 H2           3.2240     1.8470    -0.6040 hc         1 JY8       0.057700
     15 H3           2.2410     3.2000    -0.0160 hc         1 JY8       0.057700
     16 H4           2.9900     2.0840     1.1400 hc         1 JY8       0.057700
     17 H5           2.1540    -1.8740     1.0250 h1         1 JY8       0.064200
     18 H6           3.2420    -0.4790     0.9680 h1         1 JY8       0.064200
     19 H7           2.2720    -2.0750    -1.4820 hc         1 JY8       0.048033
     20 H8           3.3650    -0.6720    -1.5410 hc         1 JY8       0.048033
     21 H9           3.8870    -2.1740    -0.7470 hc         1 JY8       0.048033
     22 H10         -3.9720     1.3080    -0.1050 hn         1 JY8       0.502000
     23 H11         -2.6110     2.3780    -0.1390 hn         1 JY8       0.502000
     24 C91          2.4580    -1.0130     0.4150 c3         1 JY8       0.083600
@<TRIPOS>BOND
     1     1     2 ar  
     2     1     9 ar  
     3     1    12 1   
     4     2     5 ar  
     5     2    11 1   
     6     3     4 ar  
     7     3     9 ar  
     8     3    13 1   
     9     4     5 ar  
    10     5    10 1   
    11     6     7 1   
    12     6    11 2   
    13     6    12 1   
    14     7    14 1   
    15     7    15 1   
    16     7    16 1   
    17     8    19 1   
    18     8    20 1   
    19     8    21 1   
    20     8    24 1   
    21    10    22 1   
    22    10    23 1   
    23    12    24 1   
    24    17    24 1   
    25    18    24 1   
@<TRIPOS>SUBSTRUCTURE
     1 JY8         1 TEMP              0 ****  ****    0 ROOT
