@<TRIPOS>MOLECULE
JY8
   24    25     1     0     0
SMALL
bcc


@<TRIPOS>ATOM
      1 C4           0.0010    -0.5520     0.1720 ca         1 JY8       0.451800
      2 C5          -0.7500     0.5990    -0.0050 ca         1 JY8      -0.225200
      3 C2          -1.7800    -1.8360     0.1200 ca         1 JY8       0.703900
      4 N1          -2.6240    -0.8220    -0.0530 nb         1 JY8      -0.826000
      5 C6          -2.1390     0.4230    -0.1220 ca         1 JY8       0.773200
      6 C8           1.2660     1.2380     0.1380 cc         1 JY8       0.406800
      7 C81          2.4990     2.0610     0.1890 c3         1 JY8      -0.109400
      8 C92          2.9730    -1.4670    -0.9440 c3         1 JY8      -0.113100
      9 N3          -0.4640    -1.7980     0.2400 nb         1 JY8      -0.747000
     10 N6          -2.9840     1.4420    -0.3200 nv         1 JY8      -0.950500
     11 N7           0.0570     1.7060    -0.0240 nd         1 JY8      -0.556100
     12 N9           1.2920    -0.1280     0.2690 na         1 JY8      -0.249000
     13 H1          -2.2360    -2.8200     0.1680 h5         1 JY8       0.045100
     14 H2           3.1900     1.8060    -0.6160 hc         1 JY8       0.057700
     15 H3           2.2350     3.1110     0.0890 hc         1 JY8       0.057700
     16 H4           3.0310     1.9310     1.1320 hc         1 JY8       0.057700
     17 H5           2.1720    -1.8280     1.0280 h1         1 JY8       0.064200
     18 H6           3.2260    -0.4320     0.9360 h1         1 JY8       0.064200
     19 H7           2.2110    -2.0350    -1.4770 hc         1 JY8       0.048033
     20 H8           3.2830    -0.6340    -1.5740 hc         1 JY8       0.048033
     21 H9           3.8360    -2.1160    -0.7960 hc         1 JY8       0.048033
     22 H10         -3.9750     1.2810    -0.2780 hn         1 JY8       0.446800
     23 H11         -2.6610     2.3920    -0.2540 hn         1 JY8       0.446800
     24 C91          2.4560    -0.9840     0.4000 c3         1 JY8       0.054300
@<TRIPOS>BOND
     1     1     2 ar  
     2     1     9 ar  
     3     1    12 1   
     4     2     5 ar  
     5     2    11 1   
     6     3     4 ar  
     7     3     9 ar  
     8     3    13 1   
     9     4     5 ar  
    10     5    10 1   
    11     6     7 1   
    12     6    11 2   
    13     6    12 1   
    14     7    14 1   
    15     7    15 1   
    16     7    16 1   
    17     8    19 1   
    18     8    20 1   
    19     8    21 1   
    20     8    24 1   
    21    10    22 1   
    22    10    23 1   
    23    12    24 1   
    24    17    24 1   
    25    18    24 1   
@<TRIPOS>SUBSTRUCTURE
     1 JY8         1 TEMP              0 ****  ****    0 ROOT
