@<TRIPOS>MOLECULE
JYA
   36    38     1     0     0
SMALL
bcc


@<TRIPOS>ATOM
      1 N3          93.5270    -7.4340    13.8470 nb         1 JYA      -0.787000
      2 C4          92.8710    -9.9970    13.0400 ca         1 JYA      -0.075300
      3 C5          92.1660    -9.3970    14.0970 ca         1 JYA       0.207300
      4 C6          92.5580    -8.0980    14.4480 ca         1 JYA       0.498500
      5 C7          90.5440    -9.4920    15.6850 cc         1 JYA       0.574300
      6 C10         95.4520    -6.0430    12.6440 c3         1 JYA       0.132700
      7 C20         93.2690    -3.1290    14.2850 c3         1 JYA      -0.089100
      8 C1          93.8780    -9.3190    12.4110 ca         1 JYA      -0.277300
      9 C2          94.1700    -8.0170    12.8580 ca         1 JYA       0.696600
     10 N8          91.1600   -10.0870    14.7190 nd         1 JYA      -0.613000
     11 O9          95.1410    -7.3700    12.2360 os         1 JYA      -0.424100
     12 C11         89.4880   -10.2260    16.3290 cg         1 JYA       0.135800
     13 C12         90.8440    -8.1810    16.1370 cc         1 JYA      -0.238600
     14 N13         91.8730    -7.4940    15.4910 na         1 JYA      -0.168000
     15 C14         91.9780    -6.2800    16.0930 cc         1 JYA       0.415800
     16 N15         91.0840    -6.1810    17.0560 nd         1 JYA      -0.578300
     17 C16         90.3720    -7.3280    17.1100 cd         1 JYA       0.106400
     18 C18         92.8990    -5.1730    15.7230 c3         1 JYA      -0.081700
     19 C19         92.3840    -4.3390    14.5450 c3         1 JYA      -0.074400
     20 N21         88.6360   -10.8090    16.8360 n1         1 JYA      -0.331800
     21 H1          92.6010   -11.0000    12.7380 ha         1 JYA       0.166000
     22 H2          96.2590    -5.7150    11.9950 h1         1 JYA       0.053033
     23 H3          94.5960    -5.3780    12.5240 h1         1 JYA       0.053033
     24 H4          95.7840    -6.0100    13.6820 h1         1 JYA       0.053033
     25 H5          89.1430    -6.6370    18.6900 hc         1 JYA       0.056700
     26 H6          88.3300    -7.7680    17.6110 hc         1 JYA       0.056700
     27 H7          89.5010    -8.3590    18.7810 hc         1 JYA       0.056700
     28 H8          92.8990    -2.5460    13.4420 hc         1 JYA       0.033033
     29 H9          93.3030    -2.4730    15.1560 hc         1 JYA       0.033033
     30 H10         94.2930    -3.4280    14.0570 hc         1 JYA       0.033033
     31 H11         94.4350    -9.7560    11.5940 ha         1 JYA       0.168000
     32 H12         92.9820    -4.5350    16.6050 hc         1 JYA       0.069700
     33 H13         93.8960    -5.5510    15.5010 hc         1 JYA       0.069700
     34 H14         92.3330    -4.9630    13.6510 hc         1 JYA       0.048700
     35 H15         91.3640    -4.0100    14.7580 hc         1 JYA       0.048700
     36 C17         89.2790    -7.5390    18.0970 c3         1 JYA      -0.025900
@<TRIPOS>BOND
     1     1     4 ar  
     2     1     9 ar  
     3     2     3 ar  
     4     2     8 ar  
     5     2    21 1   
     6     3     4 ar  
     7     3    10 1   
     8     4    14 1   
     9     5    10 2   
    10     5    12 1   
    11     5    13 1   
    12     6    11 1   
    13     6    22 1   
    14     6    23 1   
    15     6    24 1   
    16     7    19 1   
    17     7    28 1   
    18     7    29 1   
    19     7    30 1   
    20     8     9 ar  
    21     8    31 1   
    22     9    11 1   
    23    12    20 3   
    24    13    14 1   
    25    13    17 2   
    26    14    15 1   
    27    15    16 2   
    28    15    18 1   
    29    16    17 1   
    30    17    36 1   
    31    18    19 1   
    32    18    32 1   
    33    18    33 1   
    34    19    34 1   
    35    19    35 1   
    36    25    36 1   
    37    26    36 1   
    38    27    36 1   
@<TRIPOS>SUBSTRUCTURE
     1 JYA         1 TEMP              0 ****  ****    0 ROOT
