@<TRIPOS>MOLECULE
JYA
   36    38     1     0     0
SMALL
No Charge or Current Charge


@<TRIPOS>ATOM
      1 N3          93.5370    -7.4060    13.8330 nb         1 JYA      -0.787000
      2 C4          92.8700   -10.0240    13.0820 ca         1 JYA       0.008000
      3 C5          92.1650    -9.4100    14.1310 ca         1 JYA       0.142000
      4 C6          92.5430    -8.0620    14.4850 ca         1 JYA       0.498500
      5 C7          90.4950    -9.5580    15.7350 cc         1 JYA       0.509000
      6 C10         95.5190    -5.9890    12.4860 c3         1 JYA       0.155900
      7 C20         93.3680    -3.1100    14.2700 c3         1 JYA      -0.089100
      8 C1          93.8910    -9.3210    12.4290 ca         1 JYA      -0.194000
      9 C2          94.1910    -8.0190    12.8310 ca         1 JYA       0.631300
     10 N8          91.1360   -10.1930    14.7420 nd         1 JYA      -0.613000
     11 O9          95.1940    -7.3560    12.1680 os         1 JYA      -0.447300
     12 C11         89.4440   -10.2720    16.4030 cg         1 JYA       0.225000
     13 C12         90.8220    -8.2140    16.1410 cc         1 JYA      -0.224000
     14 N13         91.8110    -7.5090    15.5320 na         1 JYA      -0.117300
     15 C14         91.9160    -6.2620    16.1150 cc         1 JYA       0.415800
     16 N15         91.0020    -6.1750    17.0810 nd         1 JYA      -0.578300
     17 C16         90.3140    -7.3800    17.1100 cd         1 JYA       0.106400
     18 C18         92.8680    -5.1370    15.7790 c3         1 JYA      -0.081700
     19 C19         92.4070    -4.2740    14.5800 c3         1 JYA      -0.074400
     20 N21         88.5910   -10.8750    16.9330 n1         1 JYA      -0.421000
     21 H1          92.6240   -11.0390    12.7790 ha         1 JYA       0.148000
     22 H2          96.3440    -5.6340    11.8560 h1         1 JYA       0.053033
     23 H3          94.6560    -5.3320    12.3170 h1         1 JYA       0.053033
     24 H4          95.8290    -5.8920    13.5360 h1         1 JYA       0.053033
     25 H5          89.0470    -6.7280    18.7390 hc         1 JYA       0.056700
     26 H6          88.2530    -7.8140    17.5930 hc         1 JYA       0.056700
     27 H7          89.4280    -8.4530    18.7630 hc         1 JYA       0.056700
     28 H8          93.0080    -2.5380    13.4060 hc         1 JYA       0.033033
     29 H9          93.4420    -2.4290    15.1260 hc         1 JYA       0.033033
     30 H10         94.3720    -3.4850    14.0390 hc         1 JYA       0.033033
     31 H11         94.4480    -9.7750    11.6160 ha         1 JYA       0.150000
     32 H12         92.9650    -4.4870    16.6570 hc         1 JYA       0.069700
     33 H13         93.8740    -5.5300    15.5980 hc         1 JYA       0.069700
     34 H14         92.3080    -4.9040    13.6880 hc         1 JYA       0.048700
     35 H15         91.4100    -3.8670    14.7910 hc         1 JYA       0.048700
     36 C17         89.2010    -7.6080    18.1030 c3         1 JYA      -0.025900
@<TRIPOS>BOND
     1     1     4 ar  
     2     1     9 ar  
     3     2     3 ar  
     4     2     8 ar  
     5     2    21 1   
     6     3     4 ar  
     7     3    10 1   
     8     4    14 1   
     9     5    10 2   
    10     5    12 1   
    11     5    13 1   
    12     6    11 1   
    13     6    22 1   
    14     6    23 1   
    15     6    24 1   
    16     7    19 1   
    17     7    28 1   
    18     7    29 1   
    19     7    30 1   
    20     8     9 ar  
    21     8    31 1   
    22     9    11 1   
    23    12    20 3   
    24    13    14 1   
    25    13    17 2   
    26    14    15 1   
    27    15    16 2   
    28    15    18 1   
    29    16    17 1   
    30    17    36 1   
    31    18    19 1   
    32    18    32 1   
    33    18    33 1   
    34    19    34 1   
    35    19    35 1   
    36    25    36 1   
    37    26    36 1   
    38    27    36 1   
@<TRIPOS>SUBSTRUCTURE
     1 JYA         1 TEMP              0 ****  ****    0 ROOT
