@<TRIPOS>MOLECULE
JYB
   23    24     1     0     0
SMALL
abcg2


@<TRIPOS>ATOM
      1 N12         -2.9830    -0.3350     0.0020 nb         1 JYB      -0.306000
      2 C13         -2.2530     0.7800     0.1040 ca         1 JYB       0.453900
      3 C01          3.6880     1.7980    -0.1080 c1         1 JYB      -0.184000
      4 C02          2.5640     1.3690    -0.1020 cg         1 JYB      -0.147200
      5 C03          1.2450     0.8540    -0.0960 cc         1 JYB       0.460700
      6 C05         -0.8510     0.6590     0.0060 ca         1 JYB      -0.100600
      7 C06         -0.3560    -0.6220    -0.1960 ca         1 JYB       0.127500
      8 C09          2.4230    -2.0940     0.9330 c3         1 JYB      -0.113100
      9 C11         -2.3680    -1.5000    -0.1890 ca         1 JYB       0.185900
     10 N04          0.1600     1.5700     0.0660 nd         1 JYB      -0.526100
     11 N07          0.9940    -0.4830    -0.2690 na         1 JYB      -0.262300
     12 N10         -1.0730    -1.7390    -0.2990 nb         1 JYB      -0.222000
     13 N14         -2.8630     1.9470     0.3000 nv         1 JYB      -1.061900
     14 H1           4.6820     2.1840    -0.1140 ha         1 JYB       0.264000
     15 H2           2.8070    -1.1710    -0.9860 h1         1 JYB       0.068700
     16 H3           1.4970    -2.3370    -1.0040 h1         1 JYB       0.068700
     17 H4           3.1480    -2.8930     0.7780 hc         1 JYB       0.049033
     18 H5           2.9000    -1.3180     1.5320 hc         1 JYB       0.049033
     19 H6           1.5870    -2.5020     1.4990 hc         1 JYB       0.049033
     20 H7          -3.0210    -2.3630    -0.2640 h5         1 JYB       0.046100
     21 H8          -3.8670     1.9960     0.3220 hn         1 JYB       0.507500
     22 H9          -2.3440     2.8070     0.3400 hn         1 JYB       0.507500
     23 C08          1.9650    -1.5540    -0.4100 c3         1 JYB       0.084600
@<TRIPOS>BOND
     1     1     2 ar  
     2     1     9 ar  
     3     2     6 ar  
     4     2    13 1   
     5     3     4 3   
     6     3    14 1   
     7     4     5 1   
     8     5    10 2   
     9     5    11 1   
    10     6     7 ar  
    11     6    10 1   
    12     7    11 1   
    13     7    12 ar  
    14     8    17 1   
    15     8    18 1   
    16     8    19 1   
    17     8    23 1   
    18     9    12 ar  
    19     9    20 1   
    20    11    23 1   
    21    13    21 1   
    22    13    22 1   
    23    15    23 1   
    24    16    23 1   
@<TRIPOS>SUBSTRUCTURE
     1 JYB         1 TEMP              0 ****  ****    0 ROOT
