@<TRIPOS>MOLECULE
JYB
   23    24     1     0     0
SMALL
No Charge or Current Charge


@<TRIPOS>ATOM
      1 N12         -3.0600    -0.3080     0.0610 nb         1 JYB      -0.306000
      2 C13         -2.2450     0.7550     0.1480 ca         1 JYB       0.453900
      3 C01          3.6990     1.9590    -0.0760 c1         1 JYB      -0.184000
      4 C02          2.5790     1.4820    -0.0760 cg         1 JYB      -0.147200
      5 C03          1.2830     0.8890    -0.0750 cc         1 JYB       0.460700
      6 C05         -0.8470     0.6160     0.0350 ca         1 JYB      -0.100600
      7 C06         -0.3390    -0.6460    -0.1640 ca         1 JYB       0.127500
      8 C09          2.4520    -2.1820     0.9010 c3         1 JYB      -0.113100
      9 C11         -2.4570    -1.5070    -0.1350 ca         1 JYB       0.185900
     10 N04          0.1530     1.5970     0.0920 nd         1 JYB      -0.526100
     11 N07          1.0140    -0.4720    -0.2350 na         1 JYB      -0.262300
     12 N10         -1.1270    -1.7360    -0.2530 nb         1 JYB      -0.222000
     13 N14         -2.8500     1.9570     0.3430 nv         1 JYB      -1.061900
     14 H1           4.6820     2.3850    -0.0740 ha         1 JYB       0.264000
     15 H2           2.8190    -1.2270    -1.0080 h1         1 JYB       0.068700
     16 H3           1.4700    -2.3730    -1.0200 h1         1 JYB       0.068700
     17 H4           3.1510    -3.0060     0.7140 hc         1 JYB       0.049033
     18 H5           2.9690    -1.4200     1.4970 hc         1 JYB       0.049033
     19 H6           1.6110    -2.5700     1.4870 hc         1 JYB       0.049033
     20 H7          -3.1090    -2.3760    -0.2060 h5         1 JYB       0.046100
     21 H8          -3.8400     2.0330     0.1240 hn         1 JYB       0.507500
     22 H9          -2.2850     2.7890     0.1910 hn         1 JYB       0.507500
     23 C08          1.9580    -1.5870    -0.4290 c3         1 JYB       0.084600
@<TRIPOS>BOND
     1     1     2 ar  
     2     1     9 ar  
     3     2     6 ar  
     4     2    13 1   
     5     3     4 3   
     6     3    14 1   
     7     4     5 1   
     8     5    10 2   
     9     5    11 1   
    10     6     7 ar  
    11     6    10 1   
    12     7    11 1   
    13     7    12 ar  
    14     8    17 1   
    15     8    18 1   
    16     8    19 1   
    17     8    23 1   
    18     9    12 ar  
    19     9    20 1   
    20    11    23 1   
    21    13    21 1   
    22    13    22 1   
    23    15    23 1   
    24    16    23 1   
@<TRIPOS>SUBSTRUCTURE
     1 JYB         1 TEMP              0 ****  ****    0 ROOT
