@<TRIPOS>MOLECULE
JYD
   13    12     1     0     0
SMALL
abcg2


@<TRIPOS>ATOM
      1 C01         -0.6380     0.8730     0.1540 c3         1 JYD      -0.183400
      2 C02          0.4740    -0.0830    -0.2430 c3         1 JYD       0.041300
      3 C03          1.8720     0.5320    -0.0240 c          1 JYD       0.718000
      4 C07         -2.0540     0.3920    -0.2070 c          1 JYD       0.719000
      5 O04          2.5610     0.7320    -1.0430 o          1 JYD      -0.756500
      6 O05          2.1820     0.8050     1.1520 o          1 JYD      -0.756500
      7 O08         -2.1850    -0.2470    -1.2700 o          1 JYD      -0.768500
      8 O09         -2.9720     0.7180     0.5750 o          1 JYD      -0.768500
      9 S06          0.3260    -1.6680     0.6620 sh         1 JYD      -0.590800
     10 H1          -0.5700     1.0940     1.2210 hc         1 JYD       0.023200
     11 H2          -0.4720     1.8280    -0.3650 hc         1 JYD       0.023200
     12 H3           0.3520    -0.3620    -1.2900 h1         1 JYD       0.079700
     13 H6           0.7420    -1.1990     1.8440 hs         1 JYD       0.219800
@<TRIPOS>BOND
     1     1     2 1   
     2     1     4 1   
     3     1    10 1   
     4     1    11 1   
     5     2     3 1   
     6     2     9 1   
     7     2    12 1   
     8     3     5 1   
     9     3     6 1   
    10     4     7 1   
    11     4     8 1   
    12     9    13 1   
@<TRIPOS>SUBSTRUCTURE
     1 JYD         1 TEMP              0 ****  ****    0 ROOT
