@<TRIPOS>MOLECULE
JYD
   13    12     1     0     0
SMALL
No Charge or Current Charge


@<TRIPOS>ATOM
      1 C01         -0.6760     0.9060     0.1980 c3         1 JYD      -0.183400
      2 C02          0.4270    -0.1470    -0.1020 c3         1 JYD       0.041300
      3 C03          1.8590     0.4950    -0.1370 c          1 JYD       0.718000
      4 C07         -2.0320     0.4490    -0.3640 c          1 JYD       0.719000
      5 O04          2.5300     0.3630    -1.1520 o          1 JYD      -0.756500
      6 O05          2.2730     1.0790     0.8580 o          1 JYD      -0.756500
      7 O08         -2.2710     0.6750    -1.5410 o          1 JYD      -0.768500
      8 O09         -2.8160    -0.1220     0.3790 o          1 JYD      -0.768500
      9 S06          0.3600    -1.6360     1.0460 sh         1 JYD      -0.590800
     10 H1          -0.7130     1.0360     1.2860 hc         1 JYD       0.023200
     11 H2          -0.3550     1.8070    -0.3400 hc         1 JYD       0.023200
     12 H3           0.2540    -0.5220    -1.1190 h1         1 JYD       0.079700
     13 H6           0.7780    -0.9690     2.1530 hs         1 JYD       0.219800
@<TRIPOS>BOND
     1     1     2 1   
     2     1     4 1   
     3     1    10 1   
     4     1    11 1   
     5     2     3 1   
     6     2     9 1   
     7     2    12 1   
     8     3     5 1   
     9     3     6 1   
    10     4     7 1   
    11     4     8 1   
    12     9    13 1   
@<TRIPOS>SUBSTRUCTURE
     1 JYD         1 TEMP              0 ****  ****    0 ROOT
