@<TRIPOS>MOLECULE
JYE
   26    27     1     0     0
SMALL
abcg2


@<TRIPOS>ATOM
      1 C2           2.8200     2.7080     0.3670 ca         1 JYE       0.191900
      2 C4           1.4620     0.9870     0.4180 ca         1 JYE       0.136500
      3 C5           2.3810     0.1680    -0.2180 ca         1 JYE      -0.106600
      4 C6           3.6130     0.7550    -0.5600 ca         1 JYE       0.458900
      5 C8           0.6860    -1.0190     0.1220 cc         1 JYE       0.347800
      6 CAE         -1.8600     1.1390     0.1540 c3         1 JYE      -0.122400
      7 CAF         -3.1650     1.5970     0.7900 c3         1 JYE       0.160800
      8 N1           3.7960     2.0420    -0.2460 nb         1 JYE      -0.302000
      9 N3           1.6290     2.2670     0.7340 nb         1 JYE      -0.223000
     10 N6           4.5880     0.0850    -1.1730 nv         1 JYE      -1.059900
     11 N7           1.8700    -1.0920    -0.3930 nd         1 JYE      -0.510100
     12 N9           0.3650     0.2030     0.6440 na         1 JYE      -0.267300
     13 NAA         -5.2900     0.6600    -1.5670 n1         1 JYE      -0.071000
     14 NAH         -4.1020     2.1390    -0.2000 n2         1 JYE      -0.432200
     15 NAL         -4.6910     1.3270    -0.8880 n1         1 JYE       0.228000
     16 BR8         -0.5010    -2.4420     0.1700 br         1 JYE       0.016700
     17 H1           3.0350     3.7470     0.5910 h5         1 JYE       0.049100
     18 H2          -2.0530     0.3360    -0.5620 hc         1 JYE       0.065200
     19 H3          -1.4120     1.9660    -0.4010 hc         1 JYE       0.065200
     20 H4          -3.6280     0.7810     1.3520 h1         1 JYE       0.061700
     21 H5          -2.9790     2.4090     1.4900 h1         1 JYE       0.061700
     22 H6          -0.6470     1.4590     1.9150 h1         1 JYE       0.074700
     23 H7          -1.3140    -0.1560     1.8100 h1         1 JYE       0.074700
     24 H8           5.4430     0.5500    -1.4230 hn         1 JYE       0.509500
     25 H9           4.4670    -0.8730    -1.4510 hn         1 JYE       0.509500
     26 CAG         -0.8860     0.6540     1.2200 c3         1 JYE       0.083600
@<TRIPOS>BOND
     1     1     8 ar  
     2     1     9 ar  
     3     1    17 1   
     4     2     3 ar  
     5     2     9 ar  
     6     2    12 1   
     7     3     4 ar  
     8     3    11 1   
     9     4     8 ar  
    10     4    10 1   
    11     5    11 2   
    12     5    12 1   
    13     5    16 1   
    14     6     7 1   
    15     6    18 1   
    16     6    19 1   
    17     6    26 1   
    18     7    14 1   
    19     7    20 1   
    20     7    21 1   
    21    10    24 1   
    22    10    25 1   
    23    12    26 1   
    24    13    15 3   
    25    14    15 1   
    26    22    26 1   
    27    23    26 1   
@<TRIPOS>SUBSTRUCTURE
     1 JYE         1 TEMP              0 ****  ****    0 ROOT
