@<TRIPOS>MOLECULE
JYE
   26    27     1     0     0
SMALL
No Charge or Current Charge


@<TRIPOS>ATOM
      1 C2           2.9350     2.7470     0.3970 ca         1 JYE       0.191900
      2 C4           1.4720     0.9900     0.4280 ca         1 JYE       0.136500
      3 C5           2.4190     0.1880    -0.1620 ca         1 JYE      -0.106600
      4 C6           3.6740     0.7570    -0.4590 ca         1 JYE       0.458900
      5 C8           0.7000    -1.0830     0.0890 cc         1 JYE       0.347800
      6 CAE         -1.8750     1.1620     0.1190 c3         1 JYE      -0.122400
      7 CAF         -3.2060     1.6470     0.7300 c3         1 JYE       0.160800
      8 N1           3.9380     2.0440    -0.1830 nb         1 JYE      -0.302000
      9 N3           1.7030     2.2850     0.7210 nb         1 JYE      -0.223000
     10 N6           4.6790     0.0520    -1.0450 nv         1 JYE      -1.059900
     11 N7           1.9570    -1.1170    -0.3850 nd         1 JYE      -0.510100
     12 N9           0.3840     0.1820     0.5900 na         1 JYE      -0.267300
     13 NAA         -5.5890     0.5590    -1.3090 n1         1 JYE      -0.071000
     14 NAH         -4.1020     2.1300    -0.3280 n2         1 JYE      -0.432200
     15 NAL         -4.9200     1.3110    -0.7790 n1         1 JYE       0.228000
     16 Br8         -0.5030    -2.5410     0.0750 br         1 JYE       0.016700
     17 H1           3.1390     3.7910     0.6260 h5         1 JYE       0.049100
     18 H2          -2.0780     0.3580    -0.6000 hc         1 JYE       0.065200
     19 H3          -1.4130     1.9860    -0.4390 hc         1 JYE       0.065200
     20 H4          -3.6650     0.8250     1.2980 h1         1 JYE       0.061700
     21 H5          -2.9970     2.4560     1.4430 h1         1 JYE       0.061700
     22 H6          -0.6650     1.4560     1.8970 h1         1 JYE       0.074700
     23 H7          -1.3370    -0.1730     1.7450 h1         1 JYE       0.074700
     24 H8           5.4270     0.5740    -1.4930 hn         1 JYE       0.509500
     25 H9           4.4330    -0.8420    -1.4630 hn         1 JYE       0.509500
     26 CAG         -0.8820     0.6520     1.1810 c3         1 JYE       0.083600
@<TRIPOS>BOND
     1     1     8 ar  
     2     1     9 ar  
     3     1    17 1   
     4     2     3 ar  
     5     2     9 ar  
     6     2    12 1   
     7     3     4 ar  
     8     3    11 1   
     9     4     8 ar  
    10     4    10 1   
    11     5    11 2   
    12     5    12 1   
    13     5    16 1   
    14     6     7 1   
    15     6    18 1   
    16     6    19 1   
    17     6    26 1   
    18     7    14 1   
    19     7    20 1   
    20     7    21 1   
    21    10    24 1   
    22    10    25 1   
    23    12    26 1   
    24    13    15 3   
    25    14    15 1   
    26    22    26 1   
    27    23    26 1   
@<TRIPOS>SUBSTRUCTURE
     1 JYE         1 TEMP              0 ****  ****    0 ROOT
