@<TRIPOS>MOLECULE
JYF
    6     5     1     0     0
SMALL
No Charge or Current Charge


@<TRIPOS>ATOM
      1 C1          84.5050    98.9260   123.6640 c2         1 JYF      -0.032000
      2 C2          84.9880    97.7870   124.1840 c2         1 JYF      -0.032000
      3 Cl1         84.8400    97.3390   125.8680 cl         1 JYF      -0.179500
      4 Cl2         83.6520   100.1420   124.5870 cl         1 JYF      -0.179500
      5 H1          84.6130    99.1780   122.6090 h4         1 JYF       0.211000
      6 H2          85.5170    97.0480   123.5830 h4         1 JYF       0.211000
@<TRIPOS>BOND
     1     1     2 2   
     2     1     4 1   
     3     1     5 1   
     4     2     3 1   
     5     2     6 1   
@<TRIPOS>SUBSTRUCTURE
     1 JYF         1 TEMP              0 ****  ****    0 ROOT
