@<TRIPOS>MOLECULE
JYF
    6     5     1     0     0
SMALL
abcg2


@<TRIPOS>ATOM
      1 C1          84.5050    98.9210   123.6770 c2         1 JYF      -0.032000
      2 C2          84.9810    97.7980   124.1910 c2         1 JYF      -0.032000
      3 CL1         84.8440    97.3380   125.8510 cl         1 JYF      -0.179500
      4 CL2         83.6600   100.1340   124.5740 cl         1 JYF      -0.179500
      5 H1          84.6240    99.1480   122.6280 h4         1 JYF       0.211000
      6 H2          85.5020    97.0810   123.5730 h4         1 JYF       0.211000
@<TRIPOS>BOND
     1     1     2 2   
     2     1     4 1   
     3     1     5 1   
     4     2     3 1   
     5     2     6 1   
@<TRIPOS>SUBSTRUCTURE
     1 JYF         1 TEMP              0 ****  ****    0 ROOT
