@<TRIPOS>MOLECULE
JYG
   55    60     1     0     0
SMALL
No Charge or Current Charge


@<TRIPOS>ATOM
      1 C01          6.3310     1.3430     1.0370 c3         1 JYG      -0.104100
      2 C02          5.6880     0.8220    -0.2610 c5         1 JYG       0.195000
      3 N03          5.8160    -0.6480    -0.4020 ns         1 JYG      -0.536900
      4 C04          4.5860    -1.2780    -0.4490 c          1 JYG       0.616600
      5 O05          4.3940    -2.4790    -0.5430 o          1 JYG      -0.554000
      6 C06          3.6210    -0.1960    -0.3660 cc         1 JYG      -0.242600
      7 C07          2.2260    -0.0600    -0.3500 cc         1 JYG      -0.053000
      8 C08          1.9310     1.2960    -0.2340 cd         1 JYG      -0.118000
      9 N09          3.1930     1.9560    -0.1770 na         1 JYG      -0.082000
     10 C10          4.1920     0.9940    -0.2730 cd         1 JYG      -0.178300
     11 C11          0.6070     1.9980    -0.1600 ca         1 JYG      -0.024000
     12 C12          0.6350     3.4120    -0.0890 ca         1 JYG      -0.078000
     13 C13         -0.5420     4.1630    -0.0250 ca         1 JYG      -0.155000
     14 C14         -1.7800     3.5200    -0.0300 ca         1 JYG      -0.024000
     15 C15         -1.8430     2.1150    -0.0930 ca         1 JYG      -0.239600
     16 C16         -3.1650     1.4420    -0.0930 c          1 JYG       0.589600
     17 O17         -4.2060     2.0890    -0.1010 o          1 JYG      -0.534000
     18 N18         -3.1520     0.0520    -0.0820 n          1 JYG      -0.335300
     19 C19         -1.9320    -0.5990    -0.1990 cc         1 JYG       0.752800
     20 N20         -1.9520    -1.9600    -0.3150 nu         1 JYG      -0.881400
     21 C21         -0.8860    -2.9170    -0.3840 cx         1 JYG       0.191200
     22 C22         -0.4170    -3.0190    -1.8310 c3         1 JYG      -0.075100
     23 C23          0.0430    -3.0840     0.7920 cx         1 JYG      -0.127400
     24 C24         -0.9960    -4.1390     0.4900 cx         1 JYG      -0.127400
     25 N25         -0.7300    -0.0560    -0.2280 nd         1 JYG      -0.721100
     26 C26         -0.6700     1.3390    -0.1570 ca         1 JYG       0.262400
     27 C27         -4.4290    -0.6940    -0.0160 cx         1 JYG       0.028400
     28 C28         -5.0160    -0.9730    -1.3990 c3         1 JYG      -0.074100
     29 C29         -5.4100    -0.4150     1.1090 cx         1 JYG      -0.118400
     30 C30         -4.6670    -1.7200     1.0800 cx         1 JYG      -0.118400
     31 H1           7.4110     1.1610     1.0400 hc         1 JYG       0.046700
     32 H2           6.1720     2.4220     1.1460 hc         1 JYG       0.046700
     33 H3           5.9020     0.8480     1.9170 hc         1 JYG       0.046700
     34 H4           6.1230     1.3520    -1.1200 h1         1 JYG       0.060700
     35 H5           6.6690    -1.1910    -0.4400 hn         1 JYG       0.326500
     36 H6           1.5470    -0.8990    -0.4200 ha         1 JYG       0.167000
     37 H7           3.3420     2.9540    -0.0790 hn         1 JYG       0.346000
     38 H8           1.5760     3.9530    -0.0880 ha         1 JYG       0.099000
     39 H9          -0.4940     5.2490     0.0250 ha         1 JYG       0.118000
     40 H10         -2.6870     4.1200     0.0200 ha         1 JYG       0.134000
     41 H11         -2.9070    -2.2930    -0.3170 hn         1 JYG       0.508000
     42 H12         -0.0320    -2.0590    -2.1940 hc         1 JYG       0.050367
     43 H13          0.3880    -3.7560    -1.9320 hc         1 JYG       0.050367
     44 H14         -1.2360    -3.3290    -2.4900 hc         1 JYG       0.050367
     45 H15          1.0830    -3.3230     0.5850 hc         1 JYG       0.082200
     46 H16         -0.1140    -2.4460     1.6570 hc         1 JYG       0.082200
     47 H17         -1.8470    -4.2150     1.1630 hc         1 JYG       0.082200
     48 H18         -0.6520    -5.0870     0.0850 hc         1 JYG       0.082200
     49 H19         -4.3170    -1.5450    -2.0210 hc         1 JYG       0.049367
     50 H20         -5.9490    -1.5460    -1.3360 hc         1 JYG       0.049367
     51 H21         -5.2380    -0.0360    -1.9230 hc         1 JYG       0.049367
     52 H22         -5.1270     0.3040     1.8730 hc         1 JYG       0.084450
     53 H23         -6.4730    -0.4300     0.8770 hc         1 JYG       0.084450
     54 H24         -5.2340    -2.6160     0.8360 hc         1 JYG       0.084450
     55 H25         -3.8960    -1.8650     1.8340 hc         1 JYG       0.084450
@<TRIPOS>BOND
     1     1     2 1   
     2     1    31 1   
     3     1    32 1   
     4     1    33 1   
     5     2     3 1   
     6     2    10 1   
     7     2    34 1   
     8     3     4 1   
     9     3    35 1   
    10     4     5 2   
    11     4     6 1   
    12     6     7 1   
    13     6    10 2   
    14     7     8 2   
    15     7    36 1   
    16     8     9 1   
    17     8    11 1   
    18     9    10 1   
    19     9    37 1   
    20    11    12 ar  
    21    11    26 ar  
    22    12    13 ar  
    23    12    38 1   
    24    13    14 ar  
    25    13    39 1   
    26    14    15 ar  
    27    14    40 1   
    28    15    16 1   
    29    15    26 ar  
    30    16    17 2   
    31    16    18 1   
    32    18    19 1   
    33    18    27 1   
    34    19    20 1   
    35    19    25 2   
    36    20    21 1   
    37    20    41 1   
    38    21    22 1   
    39    21    23 1   
    40    21    24 1   
    41    22    42 1   
    42    22    43 1   
    43    22    44 1   
    44    23    24 1   
    45    23    45 1   
    46    23    46 1   
    47    24    47 1   
    48    24    48 1   
    49    25    26 1   
    50    27    28 1   
    51    27    29 1   
    52    27    30 1   
    53    28    49 1   
    54    28    50 1   
    55    28    51 1   
    56    29    30 1   
    57    29    52 1   
    58    29    53 1   
    59    30    54 1   
    60    30    55 1   
@<TRIPOS>SUBSTRUCTURE
     1 JYG         1 TEMP              0 ****  ****    0 ROOT
