@<TRIPOS>MOLECULE
JYG
   55    60     1     0     0
SMALL
abcg2


@<TRIPOS>ATOM
      1 C01          6.3000     1.6080     0.5480 c3         1 JYG      -0.104100
      2 C02          5.5070     0.7390    -0.4190 c5         1 JYG       0.195000
      3 N03          5.6950    -0.6870    -0.1820 ns         1 JYG      -0.536900
      4 C04          4.5600    -1.3990     0.0860 c          1 JYG       0.616600
      5 O05          4.5060    -2.6010     0.3000 o          1 JYG      -0.554000
      6 C06          3.4820    -0.4100     0.0540 cc         1 JYG      -0.242600
      7 C07          2.0880    -0.2400     0.1890 cc         1 JYG      -0.053000
      8 C08          1.8380     1.1050    -0.0230 cd         1 JYG      -0.118000
      9 N09          3.0550     1.7240    -0.2830 na         1 JYG      -0.082000
     10 C10          4.0290     0.8050    -0.2410 cd         1 JYG      -0.178300
     11 C11          0.6030     1.8830     0.0130 ca         1 JYG      -0.024000
     12 C12          0.6450     3.2680     0.1150 ca         1 JYG      -0.078000
     13 C13         -0.5050     4.0560     0.1140 ca         1 JYG      -0.155000
     14 C14         -1.7410     3.4600     0.0230 ca         1 JYG      -0.024000
     15 C15         -1.8240     2.0680    -0.0540 ca         1 JYG      -0.239600
     16 C16         -3.1320     1.4290    -0.1300 c          1 JYG       0.589600
     17 O17         -4.1810     2.0410    -0.2080 o          1 JYG      -0.534000
     18 N18         -3.1190     0.0390    -0.0840 n          1 JYG      -0.335300
     19 C19         -1.9270    -0.6570    -0.1920 cc         1 JYG       0.752800
     20 N20         -2.0060    -1.9920    -0.3280 nu         1 JYG      -0.881400
     21 C21         -0.8590    -2.8400    -0.4810 cx         1 JYG       0.191200
     22 C22         -0.1730    -2.7670    -1.8220 c3         1 JYG      -0.075100
     23 C23         -0.0550    -3.1210     0.7520 cx         1 JYG      -0.127400
     24 C24         -0.9810    -4.1660     0.2050 cx         1 JYG      -0.127400
     25 N25         -0.7620    -0.0880    -0.1660 nd         1 JYG      -0.721100
     26 C26         -0.6760     1.2610    -0.0600 ca         1 JYG       0.262400
     27 C27         -4.3980    -0.6420    -0.0640 cx         1 JYG       0.028400
     28 C28         -4.9940    -0.8770    -1.4310 c3         1 JYG      -0.074100
     29 C29         -5.3100    -0.3270     1.0760 cx         1 JYG      -0.118400
     30 C30         -4.6270    -1.6530     1.0300 cx         1 JYG      -0.118400
     31 H1           7.3700     1.4440     0.4190 hc         1 JYG       0.046700
     32 H2           6.0990     2.6630     0.3610 hc         1 JYG       0.046700
     33 H3           6.0330     1.3800     1.5790 hc         1 JYG       0.046700
     34 H4           5.7920     0.9900    -1.4470 h1         1 JYG       0.060700
     35 H5           6.6010    -1.1220    -0.2570 hn         1 JYG       0.326500
     36 H6           1.3400    -0.9810     0.3970 ha         1 JYG       0.167000
     37 H7           3.1780     2.6940    -0.5230 hn         1 JYG       0.346000
     38 H8           1.5950     3.7780     0.2160 ha         1 JYG       0.099000
     39 H9          -0.4160     5.1310     0.1920 ha         1 JYG       0.118000
     40 H10         -2.6440     4.0560     0.0230 ha         1 JYG       0.134000
     41 H11         -2.9070    -2.4160    -0.4670 hn         1 JYG       0.508000
     42 H12          0.2140    -1.7650    -2.0040 hc         1 JYG       0.050367
     43 H13          0.6640    -3.4640    -1.8670 hc         1 JYG       0.050367
     44 H14         -0.8660    -3.0230    -2.6250 hc         1 JYG       0.050367
     45 H15          1.0120    -3.2660     0.6340 hc         1 JYG       0.082200
     46 H16         -0.3430    -2.6180     1.6660 hc         1 JYG       0.082200
     47 H17         -1.8900    -4.3750     0.7560 hc         1 JYG       0.082200
     48 H18         -0.5550    -5.0270    -0.2930 hc         1 JYG       0.082200
     49 H19         -4.3300    -1.4620    -2.0690 hc         1 JYG       0.049367
     50 H20         -5.9350    -1.4200    -1.3480 hc         1 JYG       0.049367
     51 H21         -5.1980     0.0700    -1.9320 hc         1 JYG       0.049367
     52 H22         -4.9740     0.3750     1.8270 hc         1 JYG       0.084450
     53 H23         -6.3680    -0.2690     0.8540 hc         1 JYG       0.084450
     54 H24         -5.1950    -2.5370     0.7690 hc         1 JYG       0.084450
     55 H25         -3.8350    -1.8250     1.7500 hc         1 JYG       0.084450
@<TRIPOS>BOND
     1     1     2 1   
     2     1    31 1   
     3     1    32 1   
     4     1    33 1   
     5     2     3 1   
     6     2    10 1   
     7     2    34 1   
     8     3     4 1   
     9     3    35 1   
    10     4     5 2   
    11     4     6 1   
    12     6     7 1   
    13     6    10 2   
    14     7     8 2   
    15     7    36 1   
    16     8     9 1   
    17     8    11 1   
    18     9    10 1   
    19     9    37 1   
    20    11    12 ar  
    21    11    26 ar  
    22    12    13 ar  
    23    12    38 1   
    24    13    14 ar  
    25    13    39 1   
    26    14    15 ar  
    27    14    40 1   
    28    15    16 1   
    29    15    26 ar  
    30    16    17 2   
    31    16    18 1   
    32    18    19 1   
    33    18    27 1   
    34    19    20 1   
    35    19    25 2   
    36    20    21 1   
    37    20    41 1   
    38    21    22 1   
    39    21    23 1   
    40    21    24 1   
    41    22    42 1   
    42    22    43 1   
    43    22    44 1   
    44    23    24 1   
    45    23    45 1   
    46    23    46 1   
    47    24    47 1   
    48    24    48 1   
    49    25    26 1   
    50    27    28 1   
    51    27    29 1   
    52    27    30 1   
    53    28    49 1   
    54    28    50 1   
    55    28    51 1   
    56    29    30 1   
    57    29    52 1   
    58    29    53 1   
    59    30    54 1   
    60    30    55 1   
@<TRIPOS>SUBSTRUCTURE
     1 JYG         1 TEMP              0 ****  ****    0 ROOT
