@<TRIPOS>MOLECULE
JYH
   44    47     1     0     0
SMALL
bcc


@<TRIPOS>ATOM
      1 CAJ          3.9830     1.5350     0.6100 ca         1 JYH      -0.190500
      2 CAM          5.3380     1.2660     0.6530 ca         1 JYH      -0.086000
      3 CAW          5.8530     0.0740     0.1490 ca         1 JYH      -0.144600
      4 CAT          7.3440    -0.2190     0.1930 c          1 JYH       0.924200
      5 OAC          7.7150    -1.3090    -0.2860 o          1 JYH      -0.826800
      6 OAA          8.0700     0.6550     0.7050 o          1 JYH      -0.826800
      7 CAN          4.9530    -0.8340    -0.3970 ca         1 JYH      -0.086000
      8 CAK          3.5880    -0.5860    -0.4490 ca         1 JYH      -0.190500
      9 CAV          3.0870     0.6140     0.0580 ca         1 JYH       0.020600
     10 NAS          1.7400     0.9880     0.0460 ns         1 JYH      -0.453100
     11 CAU          0.6550     0.2850    -0.3630 c          1 JYH       0.676700
     12 OAB          0.6980    -0.8710    -0.7490 o          1 JYH      -0.592100
     13 CAX         -0.6400     1.0310    -0.2960 ca         1 JYH      -0.144600
     14 CAR         -1.7940     0.2950    -0.1920 ca         1 JYH      -0.063000
     15 CBB         -3.0630     0.9110    -0.1280 ca         1 JYH      -0.034000
     16 CAO         -0.7160     2.4420    -0.3660 ca         1 JYH      -0.102000
     17 CAQ         -1.9270     3.0680    -0.3010 ca         1 JYH      -0.133000
     18 CBA         -3.1260     2.3300    -0.1690 ca         1 JYH      -0.027000
     19 CAP         -4.3760     2.9790    -0.0680 ca         1 JYH      -0.121000
     20 CAG         -5.5210     2.2470     0.0790 ca         1 JYH      -0.125000
     21 CAL         -5.4650     0.8400     0.1140 ca         1 JYH      -0.128000
     22 CAZ         -4.2730     0.1650     0.0010 cp         1 JYH      -0.012000
     23 CAY         -4.2740    -1.3150     0.0230 cp         1 JYH      -0.044000
     24 CAH         -4.7920    -1.9970     1.1230 ca         1 JYH      -0.112500
     25 CAE         -4.8270    -3.3850     1.1430 ca         1 JYH      -0.129000
     26 CAD         -4.3480    -4.1100     0.0600 ca         1 JYH      -0.124000
     27 CAF         -3.8360    -3.4390    -1.0430 ca         1 JYH      -0.129000
     28 CAI         -3.7990    -2.0530    -1.0620 ca         1 JYH      -0.112500
     29 H1           3.6110     2.4730     1.0060 ha         1 JYH       0.120000
     30 H2           6.0060     1.9990     1.0850 ha         1 JYH       0.146500
     31 H4           5.3230    -1.7680    -0.7970 ha         1 JYH       0.146500
     32 H5           2.9340    -1.3250    -0.8810 ha         1 JYH       0.120000
     33 H6           1.5620     1.8930     0.4530 hn         1 JYH       0.306500
     34 H7          -1.7240    -0.7830    -0.1380 ha         1 JYH       0.163000
     35 H8           0.1740     3.0460    -0.4940 ha         1 JYH       0.137000
     36 H9          -1.9820     4.1480    -0.3550 ha         1 JYH       0.129000
     37 H10         -4.4140     4.0610    -0.1030 ha         1 JYH       0.129000
     38 H11         -6.4790     2.7420     0.1610 ha         1 JYH       0.127000
     39 H12         -6.3850     0.2790     0.2120 ha         1 JYH       0.130000
     40 H13         -5.1610    -1.4390     1.9740 ha         1 JYH       0.136000
     41 H14         -5.2270    -3.8980     2.0080 ha         1 JYH       0.130500
     42 H15         -4.3750    -5.1920     0.0750 ha         1 JYH       0.128000
     43 H16         -3.4680    -3.9950    -1.8960 ha         1 JYH       0.130500
     44 H17         -3.4090    -1.5400    -1.9330 ha         1 JYH       0.136000
@<TRIPOS>BOND
     1     1     2 ar  
     2     1     9 ar  
     3     1    29 1   
     4     2     3 ar  
     5     2    30 1   
     6     3     4 1   
     7     3     7 ar  
     8     4     5 1   
     9     4     6 1   
    10     7     8 ar  
    11     7    31 1   
    12     8     9 ar  
    13     8    32 1   
    14     9    10 1   
    15    10    11 1   
    16    10    33 1   
    17    11    12 2   
    18    11    13 1   
    19    13    14 ar  
    20    13    16 ar  
    21    14    15 ar  
    22    14    34 1   
    23    15    18 ar  
    24    15    22 ar  
    25    16    17 ar  
    26    16    35 1   
    27    17    18 ar  
    28    17    36 1   
    29    18    19 ar  
    30    19    20 ar  
    31    19    37 1   
    32    20    21 ar  
    33    20    38 1   
    34    21    22 ar  
    35    21    39 1   
    36    22    23 1   
    37    23    24 ar  
    38    23    28 ar  
    39    24    25 ar  
    40    24    40 1   
    41    25    26 ar  
    42    25    41 1   
    43    26    27 ar  
    44    26    42 1   
    45    27    28 ar  
    46    27    43 1   
    47    28    44 1   
@<TRIPOS>SUBSTRUCTURE
     1 JYH         1 TEMP              0 ****  ****    0 ROOT
