@<TRIPOS>MOLECULE
JYH
   44    47     1     0     0
SMALL
No Charge or Current Charge


@<TRIPOS>ATOM
      1 CAJ          4.1280     1.7110     0.0500 ca         1 JYH      -0.172500
      2 CAM          5.5150     1.4820     0.0550 ca         1 JYH      -0.068000
      3 CAW          6.0280     0.1660     0.0410 ca         1 JYH      -0.144600
      4 CAT          7.5270    -0.0870     0.0460 c          1 JYH       0.713600
      5 OAC          7.9270    -1.2430     0.0340 o          1 JYH      -0.721500
      6 OAA          8.2830     0.8740     0.0620 o          1 JYH      -0.721500
      7 CAN          5.1110    -0.9100     0.0230 ca         1 JYH      -0.068000
      8 CAK          3.7240    -0.6770     0.0190 ca         1 JYH      -0.172500
      9 CAV          3.2180     0.6400     0.0330 ca         1 JYH      -0.072000
     10 NAS          1.8300     0.9580     0.0290 ns         1 JYH      -0.127000
     11 CAU          0.6780     0.1750     0.0170 c          1 JYH       0.609700
     12 OAB          0.6940    -1.0520     0.0060 o          1 JYH      -0.592100
     13 CAX         -0.6360     0.9390     0.0160 ca         1 JYH      -0.144600
     14 CAR         -1.8560     0.2220     0.0080 ca         1 JYH      -0.045000
     15 CBB         -3.1050     0.8850     0.0030 ca         1 JYH      -0.034000
     16 CAO         -0.6850     2.3540     0.0270 ca         1 JYH      -0.084000
     17 CAQ         -1.9190     3.0220     0.0390 ca         1 JYH      -0.115000
     18 CBA         -3.1240     2.2990     0.0330 ca         1 JYH      -0.027000
     19 CAP         -4.3460     2.9950     0.0620 ca         1 JYH      -0.103000
     20 CAG         -5.5570     2.2890     0.0700 ca         1 JYH      -0.107000
     21 CAL         -5.5490     0.8880     0.0360 ca         1 JYH      -0.110000
     22 CAZ         -4.3350     0.1600    -0.0100 cp         1 JYH      -0.012000
     23 CAY         -4.4000    -1.3310    -0.0760 cp         1 JYH      -0.044000
     24 CAH         -5.0480    -2.0690     0.9440 ca         1 JYH      -0.094500
     25 CAE         -5.1290    -3.4710     0.8800 ca         1 JYH      -0.111000
     26 CAD         -4.5700    -4.1580    -0.2110 ca         1 JYH      -0.106000
     27 CAF         -3.9350    -3.4420    -1.2390 ca         1 JYH      -0.111000
     28 CAI         -3.8560    -2.0410    -1.1740 ca         1 JYH      -0.094500
     29 H1           3.7610     2.7350     0.0610 ha         1 JYH       0.102000
     30 H2           6.1900     2.3350     0.0690 ha         1 JYH       0.128500
     31 H4           5.4720    -1.9370     0.0120 ha         1 JYH       0.128500
     32 H5           3.0640    -1.5370     0.0050 ha         1 JYH       0.102000
     33 H6           1.6490     1.9520     0.0370 hn         1 JYH       0.140000
     34 H7          -1.8230    -0.8640     0.0180 ha         1 JYH       0.145000
     35 H8           0.2210     2.9550     0.0330 ha         1 JYH       0.119000
     36 H9          -1.9350     4.1090     0.0570 ha         1 JYH       0.111000
     37 H10         -4.3580     4.0820     0.0860 ha         1 JYH       0.111000
     38 H11         -6.5010     2.8290     0.0970 ha         1 JYH       0.109000
     39 H12         -6.4950     0.3510     0.0300 ha         1 JYH       0.112000
     40 H13         -5.4840    -1.5460     1.7920 ha         1 JYH       0.118000
     41 H14         -5.6250    -4.0240     1.6740 ha         1 JYH       0.112500
     42 H15         -4.6330    -5.2430    -0.2610 ha         1 JYH       0.110000
     43 H16         -3.5080    -3.9720    -2.0880 ha         1 JYH       0.112500
     44 H17         -3.3710    -1.4940    -1.9800 ha         1 JYH       0.118000
@<TRIPOS>BOND
     1     1     2 ar  
     2     1     9 ar  
     3     1    29 1   
     4     2     3 ar  
     5     2    30 1   
     6     3     4 1   
     7     3     7 ar  
     8     4     5 1   
     9     4     6 1   
    10     7     8 ar  
    11     7    31 1   
    12     8     9 ar  
    13     8    32 1   
    14     9    10 1   
    15    10    11 1   
    16    10    33 1   
    17    11    12 2   
    18    11    13 1   
    19    13    14 ar  
    20    13    16 ar  
    21    14    15 ar  
    22    14    34 1   
    23    15    18 ar  
    24    15    22 ar  
    25    16    17 ar  
    26    16    35 1   
    27    17    18 ar  
    28    17    36 1   
    29    18    19 ar  
    30    19    20 ar  
    31    19    37 1   
    32    20    21 ar  
    33    20    38 1   
    34    21    22 ar  
    35    21    39 1   
    36    22    23 1   
    37    23    24 ar  
    38    23    28 ar  
    39    24    25 ar  
    40    24    40 1   
    41    25    26 ar  
    42    25    41 1   
    43    26    27 ar  
    44    26    42 1   
    45    27    28 ar  
    46    27    43 1   
    47    28    44 1   
@<TRIPOS>SUBSTRUCTURE
     1 JYH         1 TEMP              0 ****  ****    0 ROOT
