@<TRIPOS>MOLECULE
JYI
   52    55     1     0     0
SMALL
No Charge or Current Charge


@<TRIPOS>ATOM
      1 CAM         -9.5980    14.6960    -9.3490 ca         1 JYI      -0.099000
      2 CAJ         -9.6060    15.5070    -8.2010 ca         1 JYI      -0.112000
      3 CAI         -8.5950    15.3690    -7.2350 ca         1 JYI      -0.108000
      4 CAK         -7.5740    14.4210    -7.4210 ca         1 JYI      -0.112000
      5 CAN         -7.5670    13.6110    -8.5690 ca         1 JYI      -0.099000
      6 CAY         -8.5840    13.7370    -9.5380 ca         1 JYI      -0.048800
      7 CAV         -8.5750    12.8800   -10.7610 ce         1 JYI      -0.003400
      8 CBB         -8.3990    11.3970   -10.6180 ca         1 JYI      -0.048800
      9 CAS         -8.6690    10.7520    -9.3910 ca         1 JYI      -0.094000
     10 CAH         -8.6880    13.4260   -11.9890 c2         1 JYI      -0.209200
     11 CAT         -8.6540    12.5730   -13.2430 c6         1 JYI      -0.034200
     12 CBD         -7.7020    11.3490   -13.0870 c6         1 JYI       0.000300
     13 CAA         -6.2160    11.8180   -13.1010 c3         1 JYI      -0.080100
     14 CAB         -7.9020    10.4120   -14.3220 c3         1 JYI      -0.080100
     15 CBC         -7.9790    10.6330   -11.7370 ca         1 JYI      -0.073300
     16 CAQ         -7.7890     9.2410   -11.5780 ca         1 JYI      -0.111000
     17 CAL         -8.0410     8.6170   -10.3460 ca         1 JYI      -0.109000
     18 CAW         -8.4860     9.3640    -9.2430 ca         1 JYI      -0.023800
     19 CAF         -8.7530     8.6710    -7.9490 ce         1 JYI      -0.213200
     20 CAG         -8.9030     9.2120    -6.7030 cf         1 JYI      -0.092200
     21 CBA         -9.1700     8.5360    -5.4080 ca         1 JYI      -0.101800
     22 CAP         -9.4900     7.1610    -5.3710 ca         1 JYI      -0.111000
     23 CAO         -9.7480     6.5090    -4.1530 ca         1 JYI      -0.095000
     24 CAZ         -9.6960     7.2110    -2.9290 ca         1 JYI      -0.101600
     25 CAU         -9.9740     6.5070    -1.6090 c          1 JYI       0.705600
     26 OAD         -9.9180     7.1600    -0.5760 o          1 JYI      -0.712500
     27 OAC        -10.2450     5.3140    -1.6260 o          1 JYI      -0.712500
     28 CAR         -9.3780     8.5860    -2.9640 ca         1 JYI      -0.089000
     29 CAX         -9.1200     9.2430    -4.1790 ca         1 JYI       0.131000
     30 Cl          -8.7220    10.9630    -4.1030 cl         1 JYI      -0.268000
     31 H1         -10.3880    14.8060   -10.0890 ha         1 JYI       0.116000
     32 H2         -10.3950    16.2420    -8.0600 ha         1 JYI       0.111000
     33 H3          -8.6010    15.9960    -6.3470 ha         1 JYI       0.110000
     34 H4          -6.7880    14.3160    -6.6760 ha         1 JYI       0.111000
     35 H5          -6.7690    12.8850    -8.7090 ha         1 JYI       0.116000
     36 H6          -9.0390    11.3340    -8.5540 ha         1 JYI       0.125000
     37 H7          -8.7970    14.5020   -12.1240 ha         1 JYI       0.175000
     38 H8          -8.3570    13.1870   -14.1050 hc         1 JYI       0.046700
     39 H9          -9.6750    12.2240   -13.4500 hc         1 JYI       0.046700
     40 H10         -6.0030    12.5020   -12.2710 hc         1 JYI       0.034367
     41 H11         -5.5300    10.9680   -13.0050 hc         1 JYI       0.034367
     42 H12         -5.9670    12.3420   -14.0320 hc         1 JYI       0.034367
     43 H13         -8.8900     9.9370   -14.3040 hc         1 JYI       0.034367
     44 H14         -7.8260    10.9730   -15.2610 hc         1 JYI       0.034367
     45 H15         -7.1480     9.6180   -14.3690 hc         1 JYI       0.034367
     46 H16         -7.4390     8.6250   -12.4010 ha         1 JYI       0.104000
     47 H17         -7.8880     7.5450   -10.2520 ha         1 JYI       0.111000
     48 H18         -8.8090     7.5890    -8.0480 ha         1 JYI       0.173000
     49 H19         -8.8140    10.2940    -6.6350 ha         1 JYI       0.176000
     50 H20         -9.5520     6.5790    -6.2850 ha         1 JYI       0.094000
     51 H21         -9.9920     5.4490    -4.1660 ha         1 JYI       0.135000
     52 H23         -9.3280     9.1580    -2.0410 ha         1 JYI       0.149000
@<TRIPOS>BOND
     1     1     2 ar  
     2     1     6 ar  
     3     1    31 1   
     4     2     3 ar  
     5     2    32 1   
     6     3     4 ar  
     7     3    33 1   
     8     4     5 ar  
     9     4    34 1   
    10     5     6 ar  
    11     5    35 1   
    12     6     7 1   
    13     7     8 1   
    14     7    10 2   
    15     8     9 ar  
    16     8    15 ar  
    17     9    18 ar  
    18     9    36 1   
    19    10    11 1   
    20    10    37 1   
    21    11    12 1   
    22    11    38 1   
    23    11    39 1   
    24    12    13 1   
    25    12    14 1   
    26    12    15 1   
    27    13    40 1   
    28    13    41 1   
    29    13    42 1   
    30    14    43 1   
    31    14    44 1   
    32    14    45 1   
    33    15    16 ar  
    34    16    17 ar  
    35    16    46 1   
    36    17    18 ar  
    37    17    47 1   
    38    18    19 1   
    39    19    20 2   
    40    19    48 1   
    41    20    21 1   
    42    20    49 1   
    43    21    22 ar  
    44    21    29 ar  
    45    22    23 ar  
    46    22    50 1   
    47    23    24 ar  
    48    23    51 1   
    49    24    25 1   
    50    24    28 ar  
    51    25    26 1   
    52    25    27 1   
    53    28    29 ar  
    54    28    52 1   
    55    29    30 1   
@<TRIPOS>SUBSTRUCTURE
     1 JYI         1 TEMP              0 ****  ****    0 ROOT
