@<TRIPOS>MOLECULE
JYI
   52    55     1     0     0
SMALL
abcg2


@<TRIPOS>ATOM
      1 CAM         -9.3630    14.7100    -9.2540 ca         1 JYI      -0.099000
      2 CAJ         -9.2870    15.5390    -8.1390 ca         1 JYI      -0.112000
      3 CAI         -8.2420    15.3990    -7.2330 ca         1 JYI      -0.108000
      4 CAK         -7.2720    14.4230    -7.4500 ca         1 JYI      -0.112000
      5 CAN         -7.3510    13.5950    -8.5620 ca         1 JYI      -0.099000
      6 CAY         -8.3950    13.7280    -9.4850 ca         1 JYI      -0.048800
      7 CAV         -8.4580    12.8720   -10.6950 ce         1 JYI      -0.003400
      8 CBB         -8.3570    11.4030   -10.5720 ca         1 JYI      -0.048800
      9 CAS         -8.5760    10.7740    -9.3490 ca         1 JYI      -0.094000
     10 CAH         -8.6220    13.4140   -11.9110 c2         1 JYI      -0.209200
     11 CAT         -8.6780    12.5740   -13.1460 c6         1 JYI      -0.034200
     12 CBD         -7.8050    11.3080   -13.0500 c6         1 JYI       0.000300
     13 CAA         -6.3130    11.6950   -13.0930 c3         1 JYI      -0.080100
     14 CAB         -8.1200    10.4150   -14.2550 c3         1 JYI      -0.080100
     15 CBC         -8.0800    10.6200   -11.7170 ca         1 JYI      -0.073300
     16 CAQ         -8.0050     9.2400   -11.5700 ca         1 JYI      -0.111000
     17 CAL         -8.2130     8.6260   -10.3410 ca         1 JYI      -0.109000
     18 CAW         -8.5090     9.3830    -9.2030 ca         1 JYI      -0.023800
     19 CAF         -8.7370     8.6990    -7.9340 ce         1 JYI      -0.213200
     20 CAG         -9.0500     9.2780    -6.7630 cf         1 JYI      -0.092200
     21 CBA         -9.2670     8.5770    -5.5020 ca         1 JYI      -0.101800
     22 CAP         -8.8320     7.2560    -5.2920 ca         1 JYI      -0.111000
     23 CAO         -9.0430     6.5950    -4.0960 ca         1 JYI      -0.095000
     24 CAZ         -9.7020     7.2230    -3.0360 ca         1 JYI      -0.101600
     25 CAU         -9.9430     6.5030    -1.7100 c          1 JYI       0.705600
     26 OAD        -10.6210     7.1150    -0.8480 o          1 JYI      -0.712500
     27 OAC         -9.4440     5.3560    -1.5910 o          1 JYI      -0.712500
     28 CAR        -10.1360     8.5330    -3.2150 ca         1 JYI      -0.089000
     29 CAX         -9.9160     9.1870    -4.4160 ca         1 JYI       0.131000
     30 CL         -10.5100    10.8390    -4.5520 cl         1 JYI      -0.268000
     31 H1         -10.1870    14.8140    -9.9480 ha         1 JYI       0.116000
     32 H2         -10.0510    16.2900    -7.9750 ha         1 JYI       0.111000
     33 H3          -8.1840    16.0410    -6.3630 ha         1 JYI       0.110000
     34 H4          -6.4510    14.3080    -6.7530 ha         1 JYI       0.111000
     35 H5          -6.5920    12.8390    -8.7230 ha         1 JYI       0.116000
     36 H6          -8.8110    11.3870    -8.4910 ha         1 JYI       0.125000
     37 H7          -8.7160    14.4890   -12.0110 ha         1 JYI       0.175000
     38 H8          -8.3660    13.1580   -14.0150 hc         1 JYI       0.046700
     39 H9          -9.7190    12.2770   -13.3360 hc         1 JYI       0.046700
     40 H10         -6.0540    12.3710   -12.2770 hc         1 JYI       0.034367
     41 H11         -5.6900    10.8030   -13.0090 hc         1 JYI       0.034367
     42 H12         -6.0800    12.1910   -14.0380 hc         1 JYI       0.034367
     43 H13         -9.1450    10.0430   -14.2140 hc         1 JYI       0.034367
     44 H14         -8.0030    10.9940   -15.1740 hc         1 JYI       0.034367
     45 H15         -7.4460     9.5600   -14.3180 hc         1 JYI       0.034367
     46 H16         -7.7810     8.6190   -12.4270 ha         1 JYI       0.104000
     47 H17         -8.1490     7.5470   -10.2610 ha         1 JYI       0.111000
     48 H18         -8.6480     7.6190    -7.9850 ha         1 JYI       0.173000
     49 H19         -9.1750    10.3520    -6.7250 ha         1 JYI       0.176000
     50 H20         -8.3000     6.7500    -6.0870 ha         1 JYI       0.094000
     51 H21         -8.6910     5.5820    -3.9650 ha         1 JYI       0.135000
     52 H23        -10.6480     9.0340    -2.4060 ha         1 JYI       0.149000
@<TRIPOS>BOND
     1     1     2 ar  
     2     1     6 ar  
     3     1    31 1   
     4     2     3 ar  
     5     2    32 1   
     6     3     4 ar  
     7     3    33 1   
     8     4     5 ar  
     9     4    34 1   
    10     5     6 ar  
    11     5    35 1   
    12     6     7 1   
    13     7     8 1   
    14     7    10 2   
    15     8     9 ar  
    16     8    15 ar  
    17     9    18 ar  
    18     9    36 1   
    19    10    11 1   
    20    10    37 1   
    21    11    12 1   
    22    11    38 1   
    23    11    39 1   
    24    12    13 1   
    25    12    14 1   
    26    12    15 1   
    27    13    40 1   
    28    13    41 1   
    29    13    42 1   
    30    14    43 1   
    31    14    44 1   
    32    14    45 1   
    33    15    16 ar  
    34    16    17 ar  
    35    16    46 1   
    36    17    18 ar  
    37    17    47 1   
    38    18    19 1   
    39    19    20 2   
    40    19    48 1   
    41    20    21 1   
    42    20    49 1   
    43    21    22 ar  
    44    21    29 ar  
    45    22    23 ar  
    46    22    50 1   
    47    23    24 ar  
    48    23    51 1   
    49    24    25 1   
    50    24    28 ar  
    51    25    26 1   
    52    25    27 1   
    53    28    29 ar  
    54    28    52 1   
    55    29    30 1   
@<TRIPOS>SUBSTRUCTURE
     1 JYI         1 TEMP              0 ****  ****    0 ROOT
