@<TRIPOS>MOLECULE
JYJ
   44    47     1     0     0
SMALL
No Charge or Current Charge


@<TRIPOS>ATOM
      1 C1          -3.5150    -1.7380    -2.4020 cx         1 JYJ      -0.101900
      2 C2          -2.4710    -1.0980    -1.5020 cx         1 JYJ      -0.170700
      3 C3          -1.6870    -2.0450    -0.5920 c          1 JYJ       0.641100
      4 C4           0.4680    -2.5890     0.5740 c6         1 JYJ       0.071500
      5 C5           2.0010    -2.5690     0.3990 c6         1 JYJ       0.073500
      6 C6           1.9070    -0.5640    -0.9970 c6         1 JYJ       0.073500
      7 C10          4.5220     1.5830     1.8530 cc         1 JYJ      -0.089000
      8 C14         -2.3130     1.4360    -1.3030 ca         1 JYJ      -0.111000
      9 C17         -3.9970     1.4060     0.9410 ca         1 JYJ       0.122000
     10 C18         -3.6660     0.2030     0.2960 ca         1 JYJ      -0.090000
     11 C7           0.3580    -0.5540    -0.9300 c6         1 JYJ       0.071500
     12 C9           4.0300     0.6830     0.8660 cc         1 JYJ      -0.168600
     13 C11          5.3300     2.5750     1.3650 cd         1 JYJ      -0.253000
     14 C12          4.5170     0.9820    -0.3920 cd         1 JYJ      -0.225000
     15 C13         -2.8180     0.2070    -0.8290 ca         1 JYJ      -0.038300
     16 C16         -3.4870     2.6250     0.4680 ca         1 JYJ      -0.101000
     17 C15         -2.6440     2.6400    -0.6560 ca         1 JYJ      -0.102000
     18 N           -0.2920    -1.8190    -0.4580 n          1 JYJ      -0.402800
     19 C           -2.2420    -1.2050    -3.0020 cx         1 JYJ      -0.101900
     20 O            3.0430    -0.8500     2.3990 o          1 JYJ      -0.587100
     21 N1           2.5180    -1.2000     0.1960 n          1 JYJ      -0.405800
     22 O1          -2.2440    -2.9640    -0.0030 o          1 JYJ      -0.595100
     23 S            5.5390     2.4300    -0.3850 ss         1 JYJ       0.226000
     24 H1          -3.6410    -2.8180    -2.3650 hc         1 JYJ       0.081950
     25 H2          -4.4320    -1.1840    -2.5910 hc         1 JYJ       0.081950
     26 H3           0.1350    -3.6370     0.5750 h1         1 JYJ       0.068200
     27 H4           0.2240    -2.1730     1.5620 h1         1 JYJ       0.068200
     28 H5           2.4800    -3.0410     1.2690 h1         1 JYJ       0.065200
     29 H6           2.2660    -3.1780    -0.4780 h1         1 JYJ       0.065200
     30 H7           2.2280    -1.1120    -1.8950 h1         1 JYJ       0.065200
     31 H8           2.2240     0.4780    -1.1130 h1         1 JYJ       0.065200
     32 H10         -1.6580     1.4660    -2.1700 ha         1 JYJ       0.113000
     33 H11         -4.0700    -0.7330     0.6720 ha         1 JYJ       0.144000
     34 H12          0.0540     0.2530    -0.2490 h1         1 JYJ       0.068200
     35 H13         -0.0080    -0.2870    -1.9290 h1         1 JYJ       0.068200
     36 H14          5.8180     3.3750     1.9090 h4         1 JYJ       0.155000
     37 H15          4.3860     0.4400    -1.3200 h4         1 JYJ       0.155000
     38 H16         -3.7450     3.5540     0.9700 ha         1 JYJ       0.131000
     39 H17         -2.2480     3.5830    -1.0260 ha         1 JYJ       0.118000
     40 H18         -1.5100    -1.9280    -3.3570 hc         1 JYJ       0.081950
     41 H19         -2.3180    -0.3080    -3.6110 hc         1 JYJ       0.081950
     42 Cl          -5.0550     1.3840     2.3460 cl         1 JYJ      -0.198000
     43 C8           3.1700    -0.4900     1.2350 c          1 JYJ       0.635700
     44 H9           4.2670     1.4830     2.9060 ha         1 JYJ       0.149000
@<TRIPOS>BOND
     1     1     2 1   
     2     1    19 1   
     3     1    24 1   
     4     1    25 1   
     5     2     3 1   
     6     2    15 1   
     7     2    19 1   
     8     3    18 1   
     9     3    22 2   
    10     4     5 1   
    11     4    18 1   
    12     4    26 1   
    13     4    27 1   
    14     5    21 1   
    15     5    28 1   
    16     5    29 1   
    17     6    11 1   
    18     6    21 1   
    19     6    30 1   
    20     6    31 1   
    21     7    12 1   
    22     7    13 2   
    23     7    44 1   
    24     8    15 ar  
    25     8    17 ar  
    26     8    32 1   
    27     9    10 ar  
    28     9    16 ar  
    29     9    42 1   
    30    10    15 ar  
    31    10    33 1   
    32    11    18 1   
    33    11    34 1   
    34    11    35 1   
    35    12    14 2   
    36    12    43 1   
    37    13    23 1   
    38    13    36 1   
    39    14    23 1   
    40    14    37 1   
    41    16    17 ar  
    42    16    38 1   
    43    17    39 1   
    44    19    40 1   
    45    19    41 1   
    46    20    43 2   
    47    21    43 1   
@<TRIPOS>SUBSTRUCTURE
     1 JYJ         1 TEMP              0 ****  ****    0 ROOT
