@<TRIPOS>MOLECULE
JYJ
   44    47     1     0     0
SMALL
abcg2


@<TRIPOS>ATOM
      1 C1          -2.8890    -1.6010    -2.6720 cx         1 JYJ      -0.101900
      2 C2          -2.1930    -0.9390    -1.5180 cx         1 JYJ      -0.170700
      3 C3          -1.5140    -1.8650    -0.5320 c          1 JYJ       0.641100
      4 C4           0.3080    -2.1930     1.0570 c6         1 JYJ       0.071500
      5 C5           1.7090    -2.5010     0.5510 c6         1 JYJ       0.073500
      6 C6           1.7000    -0.4620    -0.7480 c6         1 JYJ       0.073500
      7 C10          4.6730     1.3260     1.4680 cc         1 JYJ      -0.089000
      8 C14         -2.6940     1.5420    -1.3570 ca         1 JYJ      -0.111000
      9 C17         -4.3390     1.0930     0.8070 ca         1 JYJ       0.122000
     10 C18         -3.6920     0.0250     0.2100 ca         1 JYJ      -0.090000
     11 C7           0.2890    -0.1630    -0.2490 c6         1 JYJ       0.071500
     12 C9           4.2240     0.3300     0.5530 cc         1 JYJ      -0.168600
     13 C11          5.4770     2.2490     0.8770 cd         1 JYJ      -0.253000
     14 C12          4.7250     0.5180    -0.7040 cd         1 JYJ      -0.225000
     15 C13         -2.8570     0.2440    -0.8860 ca         1 JYJ      -0.038300
     16 C16         -4.1860     2.3890     0.3380 ca         1 JYJ      -0.101000
     17 C15         -3.3570     2.6010    -0.7520 ca         1 JYJ      -0.102000
     18 N           -0.4070    -1.3910     0.0800 n          1 JYJ      -0.402800
     19 C           -1.6110    -0.8660    -2.9030 cx         1 JYJ      -0.101900
     20 O            3.7610    -1.4190     2.0320 o          1 JYJ      -0.587100
     21 N1           2.4180    -1.2780     0.2160 n          1 JYJ      -0.405800
     22 O1          -1.9750    -2.9710    -0.2880 o          1 JYJ      -0.595100
     23 S            5.7230     1.9010    -0.7830 ss         1 JYJ       0.226000
     24 H1          -2.8840    -2.6820    -2.7140 hc         1 JYJ       0.081950
     25 H2          -3.8060    -1.1410    -3.0140 hc         1 JYJ       0.081950
     26 H3          -0.2320    -3.1160     1.2490 h1         1 JYJ       0.068200
     27 H4           0.3680    -1.6370     1.9980 h1         1 JYJ       0.068200
     28 H5           2.2650    -3.0590     1.2990 h1         1 JYJ       0.065200
     29 H6           1.6450    -3.1190    -0.3500 h1         1 JYJ       0.065200
     30 H7           1.6470    -0.9940    -1.7030 h1         1 JYJ       0.065200
     31 H8           2.2130     0.4790    -0.9230 h1         1 JYJ       0.065200
     32 H10         -2.0440     1.7370    -2.1990 ha         1 JYJ       0.113000
     33 H11         -3.8450    -0.9770     0.5890 ha         1 JYJ       0.144000
     34 H12          0.3430     0.4660     0.6450 h1         1 JYJ       0.068200
     35 H13         -0.2370     0.4030    -1.0110 h1         1 JYJ       0.068200
     36 H14          5.9380     3.1140     1.3290 h4         1 JYJ       0.155000
     37 H15          4.5740    -0.0950    -1.5790 h4         1 JYJ       0.155000
     38 H16         -4.7010     3.2140     0.8110 ha         1 JYJ       0.131000
     39 H17         -3.2230     3.6060    -1.1310 ha         1 JYJ       0.118000
     40 H18         -0.7150    -1.4470    -3.0910 hc         1 JYJ       0.081950
     41 H19         -1.6370     0.0750    -3.4370 hc         1 JYJ       0.081950
     42 CL          -5.3700     0.7990     2.1700 cl         1 JYJ      -0.198000
     43 C8           3.4360    -0.8500     0.9990 c          1 JYJ       0.635700
     44 H9           4.3950     1.3560     2.5110 ha         1 JYJ       0.149000
@<TRIPOS>BOND
     1     1     2 1   
     2     1    19 1   
     3     1    24 1   
     4     1    25 1   
     5     2     3 1   
     6     2    15 1   
     7     2    19 1   
     8     3    18 1   
     9     3    22 2   
    10     4     5 1   
    11     4    18 1   
    12     4    26 1   
    13     4    27 1   
    14     5    21 1   
    15     5    28 1   
    16     5    29 1   
    17     6    11 1   
    18     6    21 1   
    19     6    30 1   
    20     6    31 1   
    21     7    12 1   
    22     7    13 2   
    23     7    44 1   
    24     8    15 ar  
    25     8    17 ar  
    26     8    32 1   
    27     9    10 ar  
    28     9    16 ar  
    29     9    42 1   
    30    10    15 ar  
    31    10    33 1   
    32    11    18 1   
    33    11    34 1   
    34    11    35 1   
    35    12    14 2   
    36    12    43 1   
    37    13    23 1   
    38    13    36 1   
    39    14    23 1   
    40    14    37 1   
    41    16    17 ar  
    42    16    38 1   
    43    17    39 1   
    44    19    40 1   
    45    19    41 1   
    46    20    43 2   
    47    21    43 1   
@<TRIPOS>SUBSTRUCTURE
     1 JYJ         1 TEMP              0 ****  ****    0 ROOT
