@<TRIPOS>MOLECULE
JYK
   23    24     1     0     0
SMALL
No Charge or Current Charge


@<TRIPOS>ATOM
      1 N            5.0140    -1.2460    -0.0160 n1         1 JYK      -0.062000
      2 C            1.8070    -1.7560     0.5520 c3         1 JYK       0.136800
      3 C1           1.0850    -1.1550    -0.6720 c3         1 JYK       0.061600
      4 C2          -0.1930     0.9850     0.0360 cc         1 JYK       0.346800
      5 C3          -2.1650     0.1310     0.1680 ca         1 JYK      -0.106600
      6 C4          -3.5400    -0.1280     0.3410 ca         1 JYK       0.458900
      7 C5          -3.1650    -2.3090    -0.2450 ca         1 JYK       0.191900
      8 C6          -1.3570    -0.9100    -0.2190 ca         1 JYK       0.136500
      9 N1           4.0740    -1.8730     0.1210 n1         1 JYK       0.227000
     10 N2           3.0030    -2.5020     0.1320 n2         1 JYK      -0.430200
     11 N3          -0.1070    -0.3680    -0.3040 na         1 JYK      -0.271300
     12 N4          -1.4580     1.3300     0.3320 nd         1 JYK      -0.509100
     13 N6          -4.0480    -1.3530     0.1310 nb         1 JYK      -0.302000
     14 N7          -1.8320    -2.1530    -0.4330 nb         1 JYK      -0.220000
     15 Br           1.2920     2.1530     0.0850 br         1 JYK       0.017700
     16 H2           2.0670    -0.9450     1.2480 h1         1 JYK       0.075200
     17 H3           1.1110    -2.4220     1.0780 h1         1 JYK       0.075200
     18 H4           1.7810    -0.5090    -1.2230 h1         1 JYK       0.082200
     19 H5           0.7870    -1.9670    -1.3480 h1         1 JYK       0.082200
     20 H6          -3.5670    -3.3060    -0.4150 h5         1 JYK       0.050100
     21 H7          -5.4130     0.6640     0.5410 hn         1 JYK       0.509500
     22 H8          -4.1120     1.7980     0.6640 hn         1 JYK       0.509500
     23 N5          -4.4260     0.8320     0.7180 nv         1 JYK      -1.058900
@<TRIPOS>BOND
     1     1     9 3   
     2     2     3 1   
     3     2    10 1   
     4     2    16 1   
     5     2    17 1   
     6     3    11 1   
     7     3    18 1   
     8     3    19 1   
     9     4    11 1   
    10     4    12 2   
    11     4    15 1   
    12     5     6 ar  
    13     5     8 ar  
    14     5    12 1   
    15     6    13 ar  
    16     6    23 1   
    17     7    13 ar  
    18     7    14 ar  
    19     7    20 1   
    20     8    11 1   
    21     8    14 ar  
    22     9    10 1   
    23    21    23 1   
    24    22    23 1   
@<TRIPOS>SUBSTRUCTURE
     1 JYK         1 TEMP              0 ****  ****    0 ROOT
