@<TRIPOS>MOLECULE
JYK
   23    24     1     0     0
SMALL
abcg2


@<TRIPOS>ATOM
      1 N            4.9820    -1.4810    -0.0900 n1         1 JYK      -0.062000
      2 C            1.7520    -1.6700     0.6030 c3         1 JYK       0.136800
      3 C1           1.0960    -1.1200    -0.6630 c3         1 JYK       0.061600
      4 C2          -0.2220     0.9550    -0.0010 cc         1 JYK       0.346800
      5 C3          -2.1660     0.1770     0.1330 ca         1 JYK      -0.106600
      6 C4          -3.5350    -0.1090     0.2950 ca         1 JYK       0.458900
      7 C5          -3.0430    -2.2820    -0.2900 ca         1 JYK       0.191900
      8 C6          -1.3590    -0.8800    -0.2480 ca         1 JYK       0.136500
      9 N1           3.9620    -1.9160     0.0860 n1         1 JYK       0.227000
     10 N2           2.9050    -2.4990     0.2620 n2         1 JYK      -0.430200
     11 N3          -0.0950    -0.3640    -0.3430 na         1 JYK      -0.271300
     12 N4          -1.4280     1.3230     0.2830 nd         1 JYK      -0.509100
     13 N6          -3.9370    -1.3660     0.0730 nb         1 JYK      -0.302000
     14 N7          -1.7420    -2.1330    -0.4730 nb         1 JYK      -0.220000
     15 BR           1.2400     2.0940     0.0360 br         1 JYK       0.017700
     16 H2           2.0240    -0.8590     1.2830 h1         1 JYK       0.075200
     17 H3           1.0520    -2.3180     1.1260 h1         1 JYK       0.075200
     18 H4           1.7830    -0.4880    -1.2260 h1         1 JYK       0.082200
     19 H5           0.8000    -1.9400    -1.3150 h1         1 JYK       0.082200
     20 H6          -3.4380    -3.2790    -0.4540 h5         1 JYK       0.050100
     21 H7          -5.4010     0.5690     0.7330 hn         1 JYK       0.509500
     22 H8          -4.1640     1.7690     0.7950 hn         1 JYK       0.509500
     23 N5          -4.4270     0.8080     0.6650 nv         1 JYK      -1.058900
@<TRIPOS>BOND
     1     1     9 3   
     2     2     3 1   
     3     2    10 1   
     4     2    16 1   
     5     2    17 1   
     6     3    11 1   
     7     3    18 1   
     8     3    19 1   
     9     4    11 1   
    10     4    12 2   
    11     4    15 1   
    12     5     6 ar  
    13     5     8 ar  
    14     5    12 1   
    15     6    13 ar  
    16     6    23 1   
    17     7    13 ar  
    18     7    14 ar  
    19     7    20 1   
    20     8    11 1   
    21     8    14 ar  
    22     9    10 1   
    23    21    23 1   
    24    22    23 1   
@<TRIPOS>SUBSTRUCTURE
     1 JYK         1 TEMP              0 ****  ****    0 ROOT
