@<TRIPOS>MOLECULE
JYL
   53    56     1     0     0
SMALL
abcg2


@<TRIPOS>ATOM
      1 C02         30.8440   -49.8990    -8.0440 cc         1 JYL      -0.213000
      2 C05         30.9780   -48.5160    -9.7390 cc         1 JYL       0.406800
      3 C06         28.9860   -50.0590    -9.6970 c3         1 JYL       0.046900
      4 C07         33.0130   -49.1690    -6.9130 ca         1 JYL      -0.097500
      5 C10         35.0160   -49.2390    -4.9500 ca         1 JYL      -0.113000
      6 C11         33.8460   -49.9720    -4.7870 ca         1 JYL      -0.115500
      7 C13         30.6130   -47.7870   -10.9840 c3         1 JYL      -0.129700
      8 C16         27.1160   -44.6260   -16.3920 cc         1 JYL      -0.072000
      9 C17         26.5240   -45.7930   -16.0510 cd         1 JYL      -0.161000
     10 C18         26.8860   -46.4570   -14.8500 cd         1 JYL      -0.022000
     11 C19         27.8270   -45.9460   -14.0050 cc         1 JYL      -0.133600
     12 C21         28.4390   -44.7170   -14.3810 cc         1 JYL      -0.083000
     13 C24         28.8230   -42.9680   -15.6280 cc         1 JYL       0.328800
     14 C25         28.1710   -46.6830   -12.7490 c          1 JYL       0.623700
     15 C27         28.7840   -42.0060   -16.7680 c3         1 JYL      -0.064000
     16 C28         29.5330   -42.5750   -17.9780 c3         1 JYL      -0.086600
     17 N01         30.2180   -49.4950    -9.1870 na         1 JYL      -0.156500
     18 C03         31.9780   -49.1350    -7.9450 cd         1 JYL       0.293500
     19 N04         32.0410   -48.2800    -9.0110 nd         1 JYL      -0.671000
     20 C08         34.1910   -48.4350    -7.0660 ca         1 JYL      -0.096500
     21 C09         35.1810   -48.4710    -6.0950 ca         1 JYL      -0.115500
     22 C12         32.8560   -49.9350    -5.7550 ca         1 JYL      -0.096500
     23 C14         29.5380   -46.7190   -10.7350 c3         1 JYL       0.105000
     24 N15         29.0830   -46.1030   -11.9580 ns         1 JYL      -0.492900
     25 N20         28.0660   -44.1090   -15.5580 na         1 JYL       0.012200
     26 N22         29.3550   -43.9840   -13.7930 nd         1 JYL      -0.136000
     27 N23         29.5810   -42.9080   -14.5720 nd         1 JYL      -0.338700
     28 O26         27.6260   -47.7480   -12.4860 o          1 JYL      -0.628100
     29 C29         29.3490   -40.6500   -16.3600 c3         1 JYL      -0.086600
     30 H30         30.4410   -50.6860    -7.4280 h4         1 JYL       0.157000
     31 H33         28.6710   -49.5240   -10.5880 h1         1 JYL       0.060700
     32 H32         29.1260   -51.1080    -9.9530 h1         1 JYL       0.060700
     33 H31         28.1980   -49.9770    -8.9520 h1         1 JYL       0.060700
     34 H36         35.7890   -49.2670    -4.1940 ha         1 JYL       0.109000
     35 H37         33.7020   -50.5720    -3.8970 ha         1 JYL       0.109000
     36 H39         31.5130   -47.3100   -11.3720 hc         1 JYL       0.070200
     37 H40         30.2680   -48.4840   -11.7500 hc         1 JYL       0.070200
     38 H45         25.7710   -46.2130   -16.7010 ha         1 JYL       0.140000
     39 H46         26.4000   -47.3900   -14.5990 ha         1 JYL       0.152000
     40 H47         27.7350   -41.8620   -17.0500 hc         1 JYL       0.051700
     41 H50         29.4580   -41.8870   -18.8200 hc         1 JYL       0.045533
     42 H48         30.5900   -42.7120   -17.7450 hc         1 JYL       0.045533
     43 H49         29.1310   -43.5360   -18.3000 hc         1 JYL       0.045533
     44 H34         34.3340   -47.8350    -7.9550 ha         1 JYL       0.118000
     45 H35         36.0880   -47.8960    -6.2360 ha         1 JYL       0.109000
     46 H38         31.9480   -50.5070    -5.6010 ha         1 JYL       0.118000
     47 H41         28.6850   -47.1470   -10.2080 h1         1 JYL       0.061200
     48 H42         29.9440   -45.9350   -10.0970 h1         1 JYL       0.061200
     49 H43         29.5170   -45.2370   -12.2600 hn         1 JYL       0.362500
     50 H53         29.2720   -39.9570   -17.1980 hc         1 JYL       0.045533
     51 H51         28.8060   -40.2240   -15.5180 hc         1 JYL       0.045533
     52 H52         30.4010   -40.7270   -16.0840 hc         1 JYL       0.045533
     53 H44         26.8800   -44.0710   -17.2880 h4         1 JYL       0.152000
@<TRIPOS>BOND
     1     1    17 1   
     2     1    18 2   
     3     1    30 1   
     4     2     7 1   
     5     2    17 1   
     6     2    19 2   
     7     3    17 1   
     8     3    31 1   
     9     3    32 1   
    10     3    33 1   
    11     4    18 1   
    12     4    20 ar  
    13     4    22 ar  
    14     5     6 ar  
    15     5    21 ar  
    16     5    34 1   
    17     6    22 ar  
    18     6    35 1   
    19     7    23 1   
    20     7    36 1   
    21     7    37 1   
    22     8     9 2   
    23     8    25 1   
    24     8    53 1   
    25     9    10 1   
    26     9    38 1   
    27    10    11 2   
    28    10    39 1   
    29    11    12 1   
    30    11    14 1   
    31    12    25 1   
    32    12    26 2   
    33    13    15 1   
    34    13    25 1   
    35    13    27 2   
    36    14    24 1   
    37    14    28 2   
    38    15    16 1   
    39    15    29 1   
    40    15    40 1   
    41    16    41 1   
    42    16    42 1   
    43    16    43 1   
    44    18    19 1   
    45    20    21 ar  
    46    20    44 1   
    47    21    45 1   
    48    22    46 1   
    49    23    24 1   
    50    23    47 1   
    51    23    48 1   
    52    24    49 1   
    53    26    27 1   
    54    29    50 1   
    55    29    51 1   
    56    29    52 1   
@<TRIPOS>SUBSTRUCTURE
     1 JYL         1 TEMP              0 ****  ****    0 ROOT
