@<TRIPOS>MOLECULE
JYL
   53    56     1     0     0
SMALL
No Charge or Current Charge


@<TRIPOS>ATOM
      1 C02         30.8600   -49.9830    -7.9110 cc         1 JYL      -0.213000
      2 C05         30.8610   -48.6530    -9.6910 cc         1 JYL       0.406800
      3 C06         28.8750   -50.2440    -9.4740 c3         1 JYL       0.046900
      4 C07         33.0530   -49.1500    -6.9080 ca         1 JYL      -0.097500
      5 C10         35.1220   -49.1010    -4.9730 ca         1 JYL      -0.113000
      6 C11         34.0430   -49.9880    -4.8290 ca         1 JYL      -0.115500
      7 C13         30.4380   -47.9860   -10.9690 c3         1 JYL      -0.129700
      8 C16         27.1530   -44.4970   -16.4810 cc         1 JYL      -0.072000
      9 C17         26.4910   -45.6650   -16.1140 cd         1 JYL      -0.161000
     10 C18         26.7730   -46.3920   -14.8970 cd         1 JYL      -0.022000
     11 C19         27.7510   -45.9400   -14.0290 cc         1 JYL      -0.133600
     12 C21         28.4330   -44.7300   -14.4090 cc         1 JYL      -0.083000
     13 C24         28.8990   -42.9610   -15.7030 cc         1 JYL       0.328800
     14 C25         28.0330   -46.7210   -12.7840 c          1 JYL       0.623700
     15 C27         28.8910   -41.9640   -16.8480 c3         1 JYL      -0.064000
     16 C28         29.7090   -42.4820   -18.0540 c3         1 JYL      -0.086600
     17 N01         30.1510   -49.6470    -9.0430 na         1 JYL      -0.156500
     18 C03         31.9720   -49.1760    -7.9180 cd         1 JYL       0.293500
     19 N04         31.9630   -48.3520    -9.0260 nd         1 JYL      -0.671000
     20 C08         34.1460   -48.2620    -7.0400 ca         1 JYL      -0.096500
     21 C09         35.1720   -48.2390    -6.0790 ca         1 JYL      -0.115500
     22 C12         33.0160   -50.0130    -5.7890 ca         1 JYL      -0.096500
     23 C14         29.4810   -46.8060   -10.7220 c3         1 JYL       0.105000
     24 N15         29.0160   -46.2040   -11.9730 ns         1 JYL      -0.492900
     25 N20         28.1100   -44.0710   -15.5540 na         1 JYL       0.012200
     26 N22         29.4070   -44.0390   -13.8380 nd         1 JYL      -0.136000
     27 N23         29.7020   -42.9440   -14.6440 nd         1 JYL      -0.338700
     28 O26         27.4430   -47.7500   -12.4810 o          1 JYL      -0.628100
     29 C29         29.3620   -40.5540   -16.4180 c3         1 JYL      -0.086600
     30 H30         30.5340   -50.7420    -7.2120 h4         1 JYL       0.157000
     31 H33         28.1220   -49.4570    -9.6030 h1         1 JYL       0.060700
     32 H32         29.0170   -50.7690   -10.4270 h1         1 JYL       0.060700
     33 H31         28.5230   -50.9580    -8.7200 h1         1 JYL       0.060700
     34 H36         35.9160   -49.0830    -4.2300 ha         1 JYL       0.109000
     35 H37         34.0020   -50.6580    -3.9730 ha         1 JYL       0.109000
     36 H39         31.3220   -47.6240   -11.5060 hc         1 JYL       0.070200
     37 H40         29.9570   -48.7200   -11.6250 hc         1 JYL       0.070200
     38 H45         25.7250   -46.0530   -16.7780 ha         1 JYL       0.140000
     39 H46         26.2150   -47.2980   -14.6790 ha         1 JYL       0.152000
     40 H47         27.8540   -41.8440   -17.1860 hc         1 JYL       0.051700
     41 H50         29.6490   -41.7810   -18.8950 hc         1 JYL       0.045533
     42 H48         30.7640   -42.6060   -17.7830 hc         1 JYL       0.045533
     43 H49         29.3280   -43.4530   -18.3950 hc         1 JYL       0.045533
     44 H34         34.2060   -47.5850    -7.8880 ha         1 JYL       0.118000
     45 H35         36.0070   -47.5510    -6.1930 ha         1 JYL       0.109000
     46 H38         32.1920   -50.7090    -5.6540 ha         1 JYL       0.118000
     47 H41         28.6100   -47.1460   -10.1450 h1         1 JYL       0.061200
     48 H42         29.9950   -46.0360   -10.1300 h1         1 JYL       0.061200
     49 H43         29.4490   -45.3460   -12.2960 hn         1 JYL       0.362500
     50 H53         29.2670   -39.8430   -17.2480 hc         1 JYL       0.045533
     51 H51         28.7560   -40.1810   -15.5830 hc         1 JYL       0.045533
     52 H52         30.4130   -40.5690   -16.1010 hc         1 JYL       0.045533
     53 H44         26.9810   -43.9240   -17.3830 h4         1 JYL       0.152000
@<TRIPOS>BOND
     1     1    17 1   
     2     1    18 2   
     3     1    30 1   
     4     2     7 1   
     5     2    17 1   
     6     2    19 2   
     7     3    17 1   
     8     3    31 1   
     9     3    32 1   
    10     3    33 1   
    11     4    18 1   
    12     4    20 ar  
    13     4    22 ar  
    14     5     6 ar  
    15     5    21 ar  
    16     5    34 1   
    17     6    22 ar  
    18     6    35 1   
    19     7    23 1   
    20     7    36 1   
    21     7    37 1   
    22     8     9 2   
    23     8    25 1   
    24     8    53 1   
    25     9    10 1   
    26     9    38 1   
    27    10    11 2   
    28    10    39 1   
    29    11    12 1   
    30    11    14 1   
    31    12    25 1   
    32    12    26 2   
    33    13    15 1   
    34    13    25 1   
    35    13    27 2   
    36    14    24 1   
    37    14    28 2   
    38    15    16 1   
    39    15    29 1   
    40    15    40 1   
    41    16    41 1   
    42    16    42 1   
    43    16    43 1   
    44    18    19 1   
    45    20    21 ar  
    46    20    44 1   
    47    21    45 1   
    48    22    46 1   
    49    23    24 1   
    50    23    47 1   
    51    23    48 1   
    52    24    49 1   
    53    26    27 1   
    54    29    50 1   
    55    29    51 1   
    56    29    52 1   
@<TRIPOS>SUBSTRUCTURE
     1 JYL         1 TEMP              0 ****  ****    0 ROOT
