@<TRIPOS>MOLECULE
JYM
   38    40     1     0     0
SMALL
bcc


@<TRIPOS>ATOM
      1 FAT         -3.2800    -2.7900     0.5530 f          1 JYM      -0.220967
      2 CAS         -3.8110    -1.6830     0.0480 c3         1 JYM       0.683600
      3 FAU         -4.2420    -1.9640    -1.1880 f          1 JYM      -0.220967
      4 FAV         -4.8900    -1.3650     0.7710 f          1 JYM      -0.220967
      5 C8          -2.8180    -0.5720     0.0440 cc         1 JYM       0.258800
      6 N9          -3.1870     0.7300    -0.1500 na         1 JYM      -0.343000
      7 N7          -1.5420    -0.7380     0.1900 nd         1 JYM      -0.446100
      8 C5          -1.0300     0.5260     0.0860 ca         1 JYM      -0.246200
      9 C4          -2.0410     1.4600    -0.1250 ca         1 JYM       0.507800
     10 N3          -1.9000     2.7690    -0.2640 nb         1 JYM      -0.816000
     11 C2          -0.6280     3.1540    -0.1830 ca         1 JYM       0.981900
     12 N2          -0.3600     4.4600    -0.3230 nv         1 JYM      -0.957500
     13 N1           0.4450     2.3530     0.0170 nb         1 JYM      -0.892000
     14 C6           0.2670     1.0620     0.1480 ca         1 JYM       0.803600
     15 O6           1.2830     0.2490     0.3370 os         1 JYM      -0.405100
     16 CAL          2.6080     0.7930     0.3660 c3         1 JYM       0.147400
     17 CAM          3.6010    -0.3480     0.4540 c6         1 JYM      -0.067700
     18 CAN          5.0060     0.2380     0.6080 c6         1 JYM      -0.070900
     19 CAO          6.0730    -0.8480     0.6720 c6         1 JYM      -0.072900
     20 CAP          6.0020    -1.7740    -0.5380 c6         1 JYM      -0.075400
     21 CAQ          4.6050    -2.3650    -0.6940 c6         1 JYM      -0.072900
     22 CAR          3.5370    -1.2780    -0.7580 c6         1 JYM      -0.070900
     23 H9          -4.1190     1.0950    -0.2810 hn         1 JYM       0.330700
     24 H21N        -1.1110     5.1230    -0.3990 hn         1 JYM       0.452300
     25 H22N         0.5720     4.8040    -0.1790 hn         1 JYM       0.452300
     26 HAL1         2.7820     1.3870    -0.5360 h1         1 JYM       0.052200
     27 HAL2         2.7080     1.4610     1.2270 h1         1 JYM       0.052200
     28 HAM          3.3790    -0.9310     1.3570 hc         1 JYM       0.063700
     29 HAN1         5.2120     0.9030    -0.2400 hc         1 JYM       0.043200
     30 HAN2         5.0520     0.8620     1.5060 hc         1 JYM       0.043200
     31 HAR1         2.5480    -1.7360    -0.8360 hc         1 JYM       0.043200
     32 HAR2         3.6760    -0.6820    -1.6680 hc         1 JYM       0.043200
     33 HAO1         7.0630    -0.3920     0.7450 hc         1 JYM       0.040700
     34 HAO2         5.9340    -1.4370     1.5850 hc         1 JYM       0.040700
     35 HAP1         6.2650    -1.2150    -1.4420 hc         1 JYM       0.038700
     36 HAP2         6.7410    -2.5730    -0.4440 hc         1 JYM       0.038700
     37 HAQ1         4.5540    -2.9880    -1.5900 hc         1 JYM       0.040700
     38 HAQ2         4.3990    -3.0280     0.1530 hc         1 JYM       0.040700
@<TRIPOS>BOND
     1     1     2 1   
     2     2     3 1   
     3     2     4 1   
     4     2     5 1   
     5     5     6 1   
     6     5     7 2   
     7     6     9 1   
     8     6    23 1   
     9     7     8 1   
    10     8     9 ar  
    11     8    14 ar  
    12     9    10 ar  
    13    10    11 ar  
    14    11    12 1   
    15    11    13 ar  
    16    12    24 1   
    17    12    25 1   
    18    13    14 ar  
    19    14    15 1   
    20    15    16 1   
    21    16    17 1   
    22    16    26 1   
    23    16    27 1   
    24    17    18 1   
    25    17    22 1   
    26    17    28 1   
    27    18    19 1   
    28    18    29 1   
    29    18    30 1   
    30    19    20 1   
    31    19    33 1   
    32    19    34 1   
    33    20    21 1   
    34    20    35 1   
    35    20    36 1   
    36    21    22 1   
    37    21    37 1   
    38    21    38 1   
    39    22    31 1   
    40    22    32 1   
@<TRIPOS>SUBSTRUCTURE
     1 JYM         1 TEMP              0 ****  ****    0 ROOT
