@<TRIPOS>MOLECULE
JYM
   38    40     1     0     0
SMALL
No Charge or Current Charge


@<TRIPOS>ATOM
      1 FAT         -3.6510    -2.4960     1.2050 f          1 JYM      -0.099667
      2 CAS         -3.7710    -1.7950     0.0540 c3         1 JYM       0.319700
      3 FAU         -3.5230    -2.6510    -0.9650 f          1 JYM      -0.099667
      4 FAV         -5.0700    -1.4240    -0.0490 f          1 JYM      -0.099667
      5 C8          -2.8290    -0.5980     0.0230 cc         1 JYM       0.258800
      6 N9          -3.2400     0.7340    -0.0990 na         1 JYM      -0.393300
      7 N7          -1.4860    -0.6660     0.1100 nd         1 JYM      -0.446100
      8 C5          -1.0770     0.6700     0.0370 ca         1 JYM      -0.115600
      9 C4          -2.1380     1.5280    -0.0910 ca         1 JYM       0.179500
     10 N3          -1.9900     2.8580    -0.1800 nb         1 JYM      -0.290000
     11 C2          -0.7190     3.2860    -0.1350 ca         1 JYM       0.455900
     12 N2          -0.5340     4.6180    -0.2200 nv         1 JYM      -1.067900
     13 N1           0.3980     2.5560    -0.0120 nb         1 JYM      -0.366000
     14 C6           0.2270     1.2170     0.0760 ca         1 JYM       0.475300
     15 O6           1.3090     0.3700     0.2040 os         1 JYM      -0.428300
     16 CAL          2.6530     0.8830     0.2340 c3         1 JYM       0.170600
     17 CAM          3.6520    -0.3010     0.3720 c6         1 JYM      -0.067700
     18 CAN          5.1060     0.2150     0.5620 c6         1 JYM      -0.070900
     19 CAO          6.1120    -0.9540     0.7120 c6         1 JYM      -0.072900
     20 CAP          6.0300    -1.9200    -0.4950 c6         1 JYM      -0.075400
     21 CAQ          4.5870    -2.4450    -0.6910 c6         1 JYM      -0.072900
     22 CAR          3.5800    -1.2770    -0.8400 c6         1 JYM      -0.070900
     23 H9          -4.1970     1.0540    -0.1810 hn         1 JYM       0.381000
     24 H21N        -1.3390     5.2200    -0.0650 hn         1 JYM       0.507500
     25 H22N         0.3710     4.9940     0.0540 hn         1 JYM       0.507500
     26 HAL1         2.8800     1.4390    -0.6860 h1         1 JYM       0.052200
     27 HAL2         2.7850     1.5620     1.0880 h1         1 JYM       0.052200
     28 HAM          3.3580    -0.8460     1.2810 hc         1 JYM       0.063700
     29 HAN1         5.3960     0.8400    -0.2950 hc         1 JYM       0.043200
     30 HAN2         5.1630     0.8600     1.4500 hc         1 JYM       0.043200
     31 HAR1         2.5650    -1.6860    -0.9380 hc         1 JYM       0.043200
     32 HAR2         3.7850    -0.7310    -1.7710 hc         1 JYM       0.043200
     33 HAO1         7.1320    -0.5580     0.8030 hc         1 JYM       0.040700
     34 HAO2         5.9050    -1.5030     1.6410 hc         1 JYM       0.040700
     35 HAP1         6.3640    -1.4050    -1.4060 hc         1 JYM       0.038700
     36 HAP2         6.7160    -2.7650    -0.3440 hc         1 JYM       0.038700
     37 HAQ1         4.5430    -3.0900    -1.5790 hc         1 JYM       0.040700
     38 HAQ2         4.3010    -3.0720     0.1650 hc         1 JYM       0.040700
@<TRIPOS>BOND
     1     1     2 1   
     2     2     3 1   
     3     2     4 1   
     4     2     5 1   
     5     5     6 1   
     6     5     7 2   
     7     6     9 1   
     8     6    23 1   
     9     7     8 1   
    10     8     9 ar  
    11     8    14 ar  
    12     9    10 ar  
    13    10    11 ar  
    14    11    12 1   
    15    11    13 ar  
    16    12    24 1   
    17    12    25 1   
    18    13    14 ar  
    19    14    15 1   
    20    15    16 1   
    21    16    17 1   
    22    16    26 1   
    23    16    27 1   
    24    17    18 1   
    25    17    22 1   
    26    17    28 1   
    27    18    19 1   
    28    18    29 1   
    29    18    30 1   
    30    19    20 1   
    31    19    33 1   
    32    19    34 1   
    33    20    21 1   
    34    20    35 1   
    35    20    36 1   
    36    21    22 1   
    37    21    37 1   
    38    21    38 1   
    39    22    31 1   
    40    22    32 1   
@<TRIPOS>SUBSTRUCTURE
     1 JYM         1 TEMP              0 ****  ****    0 ROOT
