@<TRIPOS>MOLECULE
JYN
   29    30     1     0     0
SMALL
No Charge or Current Charge


@<TRIPOS>ATOM
      1 C2           2.5070     2.2070     0.3010 ca         1 JYN       0.182900
      2 C4           1.7030     0.0670     0.3170 ca         1 JYN       0.120500
      3 C5           2.9080    -0.3930    -0.1540 ca         1 JYN      -0.101600
      4 C6           3.9280     0.5520    -0.3920 ca         1 JYN       0.453900
      5 C8           1.6870    -2.1610     0.0590 cc         1 JYN       0.400700
      6 CAE         -2.9290    -0.6720     0.2910 c3         1 JYN      -0.097400
      7 CAF         -1.4660    -0.7090    -0.2020 c3         1 JYN      -0.098400
      8 CAG         -3.9380    -0.3590    -0.8360 c3         1 JYN       0.158800
      9 N1           3.7330     1.8600    -0.1620 nb         1 JYN      -0.303000
     10 N3           1.4700     1.3730     0.5560 nb         1 JYN      -0.224000
     11 N6           5.1590     0.2020    -0.8540 nv         1 JYN      -1.065900
     12 N7           2.9240    -1.7860    -0.3210 nd         1 JYN      -0.549100
     13 N9           0.9330    -1.0530     0.4490 na         1 JYN      -0.279300
     14 NAA         -6.2000     1.7080     0.4670 n1         1 JYN      -0.075000
     15 NAI         -5.3080    -0.3530    -0.3060 n2         1 JYN      -0.438200
     16 NAM         -5.7690     0.7510     0.0290 n1         1 JYN       0.229000
     17 H1           2.3370     3.2660     0.4890 h5         1 JYN       0.046100
     18 H2           1.2930    -3.1710     0.0730 h5         1 JYN       0.064800
     19 H3          -3.1830    -1.6400     0.7410 hc         1 JYN       0.050200
     20 H4          -3.0240     0.0850     1.0800 hc         1 JYN       0.050200
     21 H5          -1.3660    -1.4670    -0.9890 hc         1 JYN       0.058700
     22 H6          -1.2110     0.2580    -0.6540 hc         1 JYN       0.058700
     23 H7          -3.6820     0.6080    -1.2920 h1         1 JYN       0.062700
     24 H8          -3.8430    -1.1220    -1.6200 h1         1 JYN       0.062700
     25 H9          -0.5470    -0.2600     1.7140 h1         1 JYN       0.065200
     26 H10         -0.7010    -1.9920     1.3720 h1         1 JYN       0.065200
     27 H11          5.9210     0.8610    -0.7200 hn         1 JYN       0.507500
     28 H12          5.3990    -0.7860    -0.8220 hn         1 JYN       0.507500
     29 CAH         -0.4590    -1.0190     0.9250 c3         1 JYN       0.087600
@<TRIPOS>BOND
     1     1     9 ar  
     2     1    10 ar  
     3     1    17 1   
     4     2     3 ar  
     5     2    10 ar  
     6     2    13 1   
     7     3     4 ar  
     8     3    12 1   
     9     4     9 ar  
    10     4    11 1   
    11     5    12 2   
    12     5    13 1   
    13     5    18 1   
    14     6     7 1   
    15     6     8 1   
    16     6    19 1   
    17     6    20 1   
    18     7    21 1   
    19     7    22 1   
    20     7    29 1   
    21     8    15 1   
    22     8    23 1   
    23     8    24 1   
    24    11    27 1   
    25    11    28 1   
    26    13    29 1   
    27    14    16 3   
    28    15    16 1   
    29    25    29 1   
    30    26    29 1   
@<TRIPOS>SUBSTRUCTURE
     1 JYN         1 TEMP              0 ****  ****    0 ROOT
