@<TRIPOS>MOLECULE
JYN
   29    30     1     0     0
SMALL
bcc


@<TRIPOS>ATOM
      1 C2           2.4200     2.1400     0.2690 ca         1 JYN       0.708900
      2 C4           1.6900     0.0710     0.3450 ca         1 JYN       0.448800
      3 C5           2.9040    -0.4370    -0.0970 ca         1 JYN      -0.232200
      4 C6           3.9150     0.5060    -0.3570 ca         1 JYN       0.782200
      5 C8           1.6420    -2.1010     0.1840 cc         1 JYN       0.400700
      6 CAE         -2.8880    -0.6240     0.2430 c3         1 JYN      -0.097400
      7 CAF         -1.4340    -0.6440    -0.2120 c3         1 JYN      -0.098400
      8 CAG         -3.8200    -0.2910    -0.9130 c3         1 JYN       0.158800
      9 N1           3.6320     1.7990    -0.1610 nb         1 JYN      -0.829000
     10 N3           1.3950     1.3550     0.5470 nb         1 JYN      -0.750000
     11 N6           5.1300     0.1610    -0.7870 nv         1 JYN      -0.955500
     12 N7           2.8530    -1.8030    -0.1910 nd         1 JYN      -0.549100
     13 N9           0.8900    -1.0160     0.5270 na         1 JYN      -0.250000
     14 NAA         -6.1060     1.4420     0.7430 n1         1 JYN      -0.075000
     15 NAI         -5.2370    -0.3210    -0.5240 n2         1 JYN      -0.438200
     16 NAM         -5.6380     0.6170     0.1370 n1         1 JYN       0.229000
     17 H1           2.2580     3.2040     0.4080 h5         1 JYN       0.046100
     18 H2           1.2340    -3.1000     0.2390 h5         1 JYN       0.064800
     19 H3          -3.1640    -1.5970     0.6570 hc         1 JYN       0.050200
     20 H4          -3.0130     0.1110     1.0440 hc         1 JYN       0.050200
     21 H5          -1.3060    -1.3670    -1.0220 hc         1 JYN       0.058700
     22 H6          -1.1560     0.3360    -0.6090 hc         1 JYN       0.058700
     23 H7          -3.5630     0.6800    -1.3460 h1         1 JYN       0.062700
     24 H8          -3.7210    -1.0360    -1.7000 h1         1 JYN       0.062700
     25 H9          -0.6060    -0.2940     1.7560 h1         1 JYN       0.065200
     26 H10         -0.7370    -1.9940     1.3270 h1         1 JYN       0.065200
     27 H11          5.8230     0.8660    -0.9720 hn         1 JYN       0.452300
     28 H12          5.3770    -0.8010    -0.9310 hn         1 JYN       0.452300
     29 CAH         -0.5000    -1.0050     0.9350 c3         1 JYN       0.058300
@<TRIPOS>BOND
     1     1     9 ar  
     2     1    10 ar  
     3     1    17 1   
     4     2     3 ar  
     5     2    10 ar  
     6     2    13 1   
     7     3     4 ar  
     8     3    12 1   
     9     4     9 ar  
    10     4    11 1   
    11     5    12 2   
    12     5    13 1   
    13     5    18 1   
    14     6     7 1   
    15     6     8 1   
    16     6    19 1   
    17     6    20 1   
    18     7    21 1   
    19     7    22 1   
    20     7    29 1   
    21     8    15 1   
    22     8    23 1   
    23     8    24 1   
    24    11    27 1   
    25    11    28 1   
    26    13    29 1   
    27    14    16 3   
    28    15    16 1   
    29    25    29 1   
    30    26    29 1   
@<TRIPOS>SUBSTRUCTURE
     1 JYN         1 TEMP              0 ****  ****    0 ROOT
