@<TRIPOS>MOLECULE
JYO
   50    53     1     0     0
SMALL
No Charge or Current Charge


@<TRIPOS>ATOM
      1 C4          20.2710    31.6190    -0.6170 cc         1 JYO      -0.291900
      2 C6          20.0170    31.0340    -3.0250 c6         1 JYO       0.055300
      3 C7          18.7820    30.2250    -2.4960 c6         1 JYO       0.120800
      4 C10         21.6440    35.0460    -0.2990 ca         1 JYO       0.023000
      5 C15         22.1960    35.1760     0.9940 ca         1 JYO      -0.100000
      6 C17         22.4980    37.5650     0.6710 ca         1 JYO      -0.107000
      7 C26         22.6110    34.4070    -3.5020 ca         1 JYO      -0.089000
      8 C1          20.9540    33.2550    -2.0460 cc         1 JYO      -0.059000
      9 C2          20.7380    32.6820     0.1120 cd         1 JYO      -0.086000
     10 C3          21.1900    33.7100    -0.7600 cd         1 JYO      -0.130000
     11 C9          19.6090    30.3770    -0.2600 ce         1 JYO       0.706200
     12 C11         21.1730    30.0660    -3.4340 c3         1 JYO      -0.085400
     13 C12         22.3310    30.7090    -4.2220 c3         1 JYO       0.148800
     14 C16         22.6270    36.4230     1.4740 ca         1 JYO      -0.103000
     15 C18         21.9360    37.4710    -0.6100 ca         1 JYO       0.087100
     16 C25         21.2870    33.9820    -3.2690 ca         1 JYO      -0.030000
     17 F24         21.3130    40.0000    -3.1190 f          1 JYO      -0.111000
     18 C21         21.2860    38.7250    -2.6720 c3         1 JYO       0.512000
     19 F22         19.9980    38.3150    -2.7350 f          1 JYO      -0.111000
     20 F23         22.0030    37.9870    -3.5500 f          1 JYO      -0.111000
     21 O20         21.8200    38.6450    -1.3340 os         1 JYO      -0.402100
     22 C19         21.5080    36.2110    -1.0900 ca         1 JYO      -0.098000
     23 O14         19.1670    30.2020     0.9780 oh         1 JYO      -0.607600
     24 N8          18.9250    29.6890    -1.1060 n2         1 JYO      -0.709900
     25 N13         21.9080    31.1090    -5.5770 n8         1 JYO      -1.007200
     26 N5          20.4130    31.9720    -1.9460 na         1 JYO       0.056000
     27 C27         22.9360    35.1080    -4.6760 ca         1 JYO      -0.108500
     28 C28         21.9370    35.3930    -5.6230 ca         1 JYO      -0.097000
     29 C29         20.6150    34.9750    -5.3950 ca         1 JYO      -0.108500
     30 C30         20.2920    34.2700    -4.2230 ca         1 JYO      -0.089000
     31 H6          19.7080    31.6020    -3.9120 h1         1 JYO       0.101700
     32 H72         17.9040    30.8880    -2.5100 h1         1 JYO       0.066700
     33 H71         18.5590    29.3940    -3.1830 h1         1 JYO       0.066700
     34 H15         22.3180    34.3030     1.6290 ha         1 JYO       0.121000
     35 H17         22.8290    38.5310     1.0460 ha         1 JYO       0.133000
     36 H26         23.3860    34.1900    -2.7710 ha         1 JYO       0.116000
     37 H2          20.7110    32.7370     1.1960 ha         1 JYO       0.145000
     38 H112        20.7710    29.2420    -4.0360 hc         1 JYO       0.056200
     39 H111        21.5910    29.5990    -2.5350 hc         1 JYO       0.056200
     40 H122        23.1550    29.9870    -4.3140 h1         1 JYO       0.035700
     41 H121        22.7090    31.5880    -3.6830 h1         1 JYO       0.035700
     42 H16         23.0600    36.5030     2.4680 ha         1 JYO       0.119000
     43 H19         21.0320    36.1380    -2.0570 ha         1 JYO       0.140000
     44 HO14        18.5410    29.4750     0.8010 ho         1 JYO       0.483000
     45 HN12        22.7060    31.5320    -6.0660 hn         1 JYO       0.397000
     46 HN11        21.7060    30.2670    -6.1290 hn         1 JYO       0.397000
     47 H27         23.9590    35.4320    -4.8500 ha         1 JYO       0.115000
     48 H28         22.1880    35.9380    -6.5300 ha         1 JYO       0.114000
     49 H29         19.8410    35.1980    -6.1260 ha         1 JYO       0.115000
     50 H30         19.2650    33.9570    -4.0490 ha         1 JYO       0.116000
@<TRIPOS>BOND
     1     1     9 2   
     2     1    11 1   
     3     1    26 1   
     4     2     3 1   
     5     2    12 1   
     6     2    26 1   
     7     2    31 1   
     8     3    24 1   
     9     3    32 1   
    10     3    33 1   
    11     4     5 ar  
    12     4    10 1   
    13     4    22 ar  
    14     5    14 ar  
    15     5    34 1   
    16     6    14 ar  
    17     6    15 ar  
    18     6    35 1   
    19     7    16 ar  
    20     7    27 ar  
    21     7    36 1   
    22     8    10 2   
    23     8    16 1   
    24     8    26 1   
    25     9    10 1   
    26     9    37 1   
    27    11    23 1   
    28    11    24 2   
    29    12    13 1   
    30    12    38 1   
    31    12    39 1   
    32    13    25 1   
    33    13    40 1   
    34    13    41 1   
    35    14    42 1   
    36    15    21 1   
    37    15    22 ar  
    38    16    30 ar  
    39    17    18 1   
    40    18    19 1   
    41    18    20 1   
    42    18    21 1   
    43    22    43 1   
    44    23    44 1   
    45    25    45 1   
    46    25    46 1   
    47    27    28 ar  
    48    27    47 1   
    49    28    29 ar  
    50    28    48 1   
    51    29    30 ar  
    52    29    49 1   
    53    30    50 1   
@<TRIPOS>SUBSTRUCTURE
     1 JYO         1 TEMP              0 ****  ****    0 ROOT
