@<TRIPOS>MOLECULE
JYO
   50    53     1     0     0
SMALL
abcg2


@<TRIPOS>ATOM
      1 C4          20.1160    31.6450    -0.7020 cc         1 JYO      -0.291900
      2 C6          19.9820    30.9930    -3.0450 c6         1 JYO       0.055300
      3 C7          18.7700    30.1880    -2.5800 c6         1 JYO       0.120800
      4 C10         21.4970    35.0150    -0.3940 ca         1 JYO       0.023000
      5 C15         22.2630    35.1240     0.7690 ca         1 JYO      -0.100000
      6 C17         22.4760    37.5060     0.4760 ca         1 JYO      -0.107000
      7 C26         22.2310    34.4140    -3.7230 ca         1 JYO      -0.089000
      8 C1          20.7480    33.2520    -2.1060 cc         1 JYO      -0.059000
      9 C2          20.5850    32.6770     0.0720 cd         1 JYO      -0.086000
     10 C3          20.9820    33.7080    -0.8090 cd         1 JYO      -0.130000
     11 C9          19.5060    30.3660    -0.3960 ce         1 JYO       0.706200
     12 C11         21.2120    30.1080    -3.2580 c3         1 JYO      -0.085400
     13 C12         22.3930    30.8000    -3.9220 c3         1 JYO       0.148800
     14 C16         22.7350    36.3530     1.2030 ca         1 JYO      -0.103000
     15 C18         21.7250    37.3890    -0.6800 ca         1 JYO       0.087100
     16 C25         20.9650    33.9410    -3.3840 ca         1 JYO      -0.030000
     17 F24         21.7940    40.0290    -2.9000 f          1 JYO      -0.111000
     18 C21         22.2580    38.9090    -2.3690 c3         1 JYO       0.512000
     19 F22         22.3630    37.9990    -3.3400 f          1 JYO      -0.111000
     20 F23         23.4950    39.1340    -1.9210 f          1 JYO      -0.111000
     21 O20         21.4120    38.5390    -1.4010 os         1 JYO      -0.402100
     22 C19         21.2220    36.1780    -1.1150 ca         1 JYO      -0.098000
     23 O14         19.6310    30.0040     0.8820 oh         1 JYO      -0.607600
     24 N8          18.8920    29.6460    -1.2400 n2         1 JYO      -0.709900
     25 N13         22.0580    31.2300    -5.2690 n8         1 JYO      -1.007200
     26 N5          20.2210    32.0040    -2.0170 na         1 JYO       0.056000
     27 C27         22.4310    35.0990    -4.9110 ca         1 JYO      -0.108500
     28 C28         21.3660    35.3180    -5.7770 ca         1 JYO      -0.097000
     29 C29         20.1010    34.8540    -5.4440 ca         1 JYO      -0.108500
     30 C30         19.8990    34.1720    -4.2530 ca         1 JYO      -0.089000
     31 H6          19.7370    31.4930    -3.9810 h1         1 JYO       0.101700
     32 H72         17.8740    30.8180    -2.6350 h1         1 JYO       0.066700
     33 H71         18.6110    29.3680    -3.2810 h1         1 JYO       0.066700
     34 H15         22.4990    34.2360     1.3410 ha         1 JYO       0.121000
     35 H17         22.8370    38.4690     0.8110 ha         1 JYO       0.133000
     36 H26         23.0630    34.2420    -3.0510 ha         1 JYO       0.116000
     37 H2          20.5890    32.7160     1.1500 ha         1 JYO       0.145000
     38 H112        20.9030    29.2640    -3.8820 hc         1 JYO       0.056200
     39 H111        21.5360    29.6780    -2.3070 hc         1 JYO       0.056200
     40 H122        23.2520    30.1160    -3.8830 h1         1 JYO       0.035700
     41 H121        22.6870    31.6770    -3.3420 h1         1 JYO       0.035700
     42 H16         23.3190    36.4130     2.1110 ha         1 JYO       0.119000
     43 H19         20.5980    36.1470    -1.9980 ha         1 JYO       0.140000
     44 HO14        19.1550    29.1720     1.0150 ho         1 JYO       0.483000
     45 HN12        22.7780    31.8470    -5.6220 hn         1 JYO       0.397000
     46 HN11        22.0450    30.4280    -5.8870 hn         1 JYO       0.397000
     47 H27         23.4190    35.4580    -5.1650 ha         1 JYO       0.115000
     48 H28         21.5220    35.8520    -6.7050 ha         1 JYO       0.114000
     49 H29         19.2660    35.0290    -6.1100 ha         1 JYO       0.115000
     50 H30         18.9050    33.8310    -3.9900 ha         1 JYO       0.116000
@<TRIPOS>BOND
     1     1     9 2   
     2     1    11 1   
     3     1    26 1   
     4     2     3 1   
     5     2    12 1   
     6     2    26 1   
     7     2    31 1   
     8     3    24 1   
     9     3    32 1   
    10     3    33 1   
    11     4     5 ar  
    12     4    10 1   
    13     4    22 ar  
    14     5    14 ar  
    15     5    34 1   
    16     6    14 ar  
    17     6    15 ar  
    18     6    35 1   
    19     7    16 ar  
    20     7    27 ar  
    21     7    36 1   
    22     8    10 2   
    23     8    16 1   
    24     8    26 1   
    25     9    10 1   
    26     9    37 1   
    27    11    23 1   
    28    11    24 2   
    29    12    13 1   
    30    12    38 1   
    31    12    39 1   
    32    13    25 1   
    33    13    40 1   
    34    13    41 1   
    35    14    42 1   
    36    15    21 1   
    37    15    22 ar  
    38    16    30 ar  
    39    17    18 1   
    40    18    19 1   
    41    18    20 1   
    42    18    21 1   
    43    22    43 1   
    44    23    44 1   
    45    25    45 1   
    46    25    46 1   
    47    27    28 ar  
    48    27    47 1   
    49    28    29 ar  
    50    28    48 1   
    51    29    30 ar  
    52    29    49 1   
    53    30    50 1   
@<TRIPOS>SUBSTRUCTURE
     1 JYO         1 TEMP              0 ****  ****    0 ROOT
