@<TRIPOS>MOLECULE
JYQ
   33    34     1     0     0
SMALL
No Charge or Current Charge


@<TRIPOS>ATOM
      1 C5           3.7930     0.3870     0.2440 ca         1 JYQ      -0.099600
      2 C8           2.5240     2.1340     0.2530 cc         1 JYQ       0.401700
      3 C2           3.5350    -2.0900    -0.7180 ca         1 JYQ       0.180900
      4 N3           2.4970    -1.2430    -0.9200 nb         1 JYQ      -0.220000
      5 N7           3.7340     1.7190     0.6790 nd         1 JYQ      -0.550100
      6 C4           2.6570    -0.0000    -0.4230 ca         1 JYQ       0.119500
      7 C6           4.8230    -0.5640     0.4030 ca         1 JYQ       0.446900
      8 CAA         -7.2510    -0.6340     0.3170 c3         1 JYQ      -0.185100
      9 CAF         -1.9830     0.6190    -0.7260 c3         1 JYQ      -0.066400
     10 CAG         -0.5770     0.5930    -0.0890 c3         1 JYQ      -0.098400
     11 CAH         -3.0780     0.0750     0.2120 c3         1 JYQ       0.073600
     12 CAN         -5.7790    -0.5470     0.6940 c          1 JYQ       0.614700
     13 N1           4.6970    -1.8120    -0.0760 nb         1 JYQ      -0.300000
     14 N9           1.8570     1.1060    -0.4170 na         1 JYQ      -0.278300
     15 OAC         -5.3490    -0.9060     1.7810 o          1 JYQ      -0.512100
     16 SAM         -4.7280     0.1400    -0.6220 ss         1 JYQ      -0.392600
     17 H1           2.0920     3.1180     0.3920 h5         1 JYQ       0.064800
     18 H2           3.4240    -3.0990    -1.1110 h5         1 JYQ       0.046100
     19 H3           6.5450    -1.0650     1.3850 hn         1 JYQ       0.503000
     20 H4           6.0130     0.5680     1.6040 hn         1 JYQ       0.503000
     21 H5          -7.5960     0.3590     0.0080 hc         1 JYQ       0.071033
     22 H6          -7.3440    -1.2110    -0.6090 hc         1 JYQ       0.071033
     23 H7          -7.8690    -1.0490     1.1210 hc         1 JYQ       0.071033
     24 H8          -2.2340     1.6490    -1.0090 hc         1 JYQ       0.055200
     25 H9          -1.9750     0.0250    -1.6490 hc         1 JYQ       0.055200
     26 H10         -0.5840     1.1870     0.8330 hc         1 JYQ       0.058700
     27 H11         -0.3280    -0.4380     0.1960 hc         1 JYQ       0.058700
     28 H12         -2.8510    -0.9640     0.4850 h1         1 JYQ       0.074700
     29 H13         -3.1130     0.6760     1.1310 h1         1 JYQ       0.074700
     30 H14          0.5380     0.5390    -1.9520 h1         1 JYQ       0.066200
     31 H15          0.2820     2.1700    -1.3070 h1         1 JYQ       0.066200
     32 N6           5.9860    -0.2850     1.0510 nv         1 JYQ      -1.058900
     33 CAI          0.5200     1.1340    -1.0300 c3         1 JYQ       0.084600
@<TRIPOS>BOND
     1     1     5 1   
     2     1     6 ar  
     3     1     7 ar  
     4     2     5 2   
     5     2    14 1   
     6     2    17 1   
     7     3     4 ar  
     8     3    13 ar  
     9     3    18 1   
    10     4     6 ar  
    11     6    14 1   
    12     7    13 ar  
    13     7    32 1   
    14     8    12 1   
    15     8    21 1   
    16     8    22 1   
    17     8    23 1   
    18     9    10 1   
    19     9    11 1   
    20     9    24 1   
    21     9    25 1   
    22    10    26 1   
    23    10    27 1   
    24    10    33 1   
    25    11    16 1   
    26    11    28 1   
    27    11    29 1   
    28    12    15 2   
    29    12    16 1   
    30    14    33 1   
    31    19    32 1   
    32    20    32 1   
    33    30    33 1   
    34    31    33 1   
@<TRIPOS>SUBSTRUCTURE
     1 JYQ         1 TEMP              0 ****  ****    0 ROOT
