@<TRIPOS>MOLECULE
JYQ
   33    34     1     0     0
SMALL
abcg2


@<TRIPOS>ATOM
      1 C5           3.7560     0.3870     0.2890 ca         1 JYQ      -0.099600
      2 C8           2.4610     2.0500     0.2930 cc         1 JYQ       0.401700
      3 C2           3.4430    -2.0030    -0.8050 ca         1 JYQ       0.180900
      4 N3           2.4250    -1.1850    -0.9980 nb         1 JYQ      -0.220000
      5 N7           3.6290     1.6770     0.7330 nd         1 JYQ      -0.550100
      6 C4           2.6320     0.0010    -0.4270 ca         1 JYQ       0.119500
      7 C6           4.7690    -0.5800     0.4230 ca         1 JYQ       0.446900
      8 CAA         -7.1260    -0.6530     0.2180 c3         1 JYQ      -0.185100
      9 CAF         -1.9580     0.6200    -0.6940 c3         1 JYQ      -0.066400
     10 CAG         -0.5790     0.5950    -0.0480 c3         1 JYQ      -0.098400
     11 CAH         -3.0220     0.1090     0.2670 c3         1 JYQ       0.073600
     12 CAN         -5.7040    -0.5080     0.6820 c          1 JYQ       0.614700
     13 N1           4.5750    -1.7760    -0.1420 nb         1 JYQ      -0.300000
     14 N9           1.8110     1.0870    -0.4210 na         1 JYQ      -0.278300
     15 OAC         -5.3140    -0.8260     1.7770 o          1 JYQ      -0.512100
     16 SAM         -4.6350     0.1400    -0.5640 ss         1 JYQ      -0.392600
     17 H1           2.0170     3.0220     0.4510 h5         1 JYQ       0.064800
     18 H2           3.3510    -2.9920    -1.2420 h5         1 JYQ       0.046100
     19 H3           6.5510    -1.0990     1.2500 hn         1 JYQ       0.503000
     20 H4           6.0310     0.5020     1.6070 hn         1 JYQ       0.503000
     21 H5          -7.3750     0.0290    -0.5920 hc         1 JYQ       0.071033
     22 H6          -7.2720    -1.6730    -0.1450 hc         1 JYQ       0.071033
     23 H7          -7.8080    -0.4910     1.0510 hc         1 JYQ       0.071033
     24 H8          -2.2010     1.6400    -1.0060 hc         1 JYQ       0.055200
     25 H9          -1.9490     0.0040    -1.5980 hc         1 JYQ       0.055200
     26 H10         -0.5880     1.1810     0.8760 hc         1 JYQ       0.058700
     27 H11         -0.3140    -0.4300     0.2250 hc         1 JYQ       0.058700
     28 H12         -2.8030    -0.9130     0.5790 h1         1 JYQ       0.074700
     29 H13         -3.0740     0.7380     1.1560 h1         1 JYQ       0.074700
     30 H14          0.4860     0.6160    -1.9310 h1         1 JYQ       0.066200
     31 H15          0.2700     2.2050    -1.2170 h1         1 JYQ       0.066200
     32 N6           5.9130    -0.3420     1.0720 nv         1 JYQ      -1.058900
     33 CAI          0.4790     1.1610    -0.9870 c3         1 JYQ       0.084600
@<TRIPOS>BOND
     1     1     5 1   
     2     1     6 ar  
     3     1     7 ar  
     4     2     5 2   
     5     2    14 1   
     6     2    17 1   
     7     3     4 ar  
     8     3    13 ar  
     9     3    18 1   
    10     4     6 ar  
    11     6    14 1   
    12     7    13 ar  
    13     7    32 1   
    14     8    12 1   
    15     8    21 1   
    16     8    22 1   
    17     8    23 1   
    18     9    10 1   
    19     9    11 1   
    20     9    24 1   
    21     9    25 1   
    22    10    26 1   
    23    10    27 1   
    24    10    33 1   
    25    11    16 1   
    26    11    28 1   
    27    11    29 1   
    28    12    15 2   
    29    12    16 1   
    30    14    33 1   
    31    19    32 1   
    32    20    32 1   
    33    30    33 1   
    34    31    33 1   
@<TRIPOS>SUBSTRUCTURE
     1 JYQ         1 TEMP              0 ****  ****    0 ROOT
