@<TRIPOS>MOLECULE
JYS
   46    49     1     0     0
SMALL
No Charge or Current Charge


@<TRIPOS>ATOM
      1 C01          6.0400     0.2920    -1.0410 ca         1 JYS      -0.139000
      2 C02          5.2580    -0.8490    -1.2700 ca         1 JYS       0.176000
      3 C03          4.0420    -0.9820    -0.5870 ca         1 JYS      -0.115200
      4 C04          3.5860    -0.0320     0.3030 ca         1 JYS       0.005200
      5 C05          4.3610     1.1380     0.5450 ca         1 JYS       0.004100
      6 C06          5.5900     1.2790    -0.1390 ca         1 JYS      -0.077000
      7 C07          2.0400    -1.8020     0.1470 cc         1 JYS      -0.089100
      8 C08          2.2980    -0.5780     0.7690 cd         1 JYS      -0.243400
      9 C09          1.3100    -0.0280     1.7590 c          1 JYS       0.539300
     10 C10         -0.0210    -0.8820     1.9910 c          1 JYS       0.511100
     11 C11         -2.3880    -1.4360     1.3060 c6         1 JYS       0.068000
     12 C12         -3.3170    -1.6230     0.0810 c6         1 JYS       0.073500
     13 C13         -1.9870    -0.0570    -1.2440 c6         1 JYS       0.073500
     14 C14         -1.0240     0.2130    -0.0650 c6         1 JYS       0.068000
     15 C15         -4.3950     0.5290    -0.7420 c          1 JYS       0.614700
     16 C16         -5.8180     0.0390    -0.5660 ca         1 JYS      -0.147600
     17 C17         -6.7710     0.8800     0.0490 ca         1 JYS      -0.075500
     18 C18         -8.1040     0.4580     0.2040 ca         1 JYS      -0.116500
     19 C19         -8.5040    -0.8020    -0.2680 ca         1 JYS      -0.091000
     20 C20         -7.5720    -1.6360    -0.9060 ca         1 JYS      -0.116500
     21 C21         -6.2390    -1.2180    -1.0610 ca         1 JYS      -0.075500
     22 F22          5.6740    -1.8020    -2.1350 f          1 JYS      -0.175000
     23 N23          3.1420    -2.0270    -0.6880 na         1 JYS      -0.185700
     24 N24         -1.0540    -0.8210     1.0170 n          1 JYS      -0.400800
     25 N25         -3.3450    -0.4180    -0.7840 n          1 JYS      -0.405800
     26 O26          1.4620     1.0170     2.3800 o          1 JYS      -0.473100
     27 O27         -0.1470    -1.5880     2.9910 o          1 JYS      -0.586100
     28 O28         -4.1680     1.7180    -0.9320 o          1 JYS      -0.584100
     29 Br           3.8930     2.5790     1.7180 br         1 JYS      -0.056100
     30 H1           6.9870     0.4140    -1.5610 ha         1 JYS       0.139000
     31 H2           6.2000     2.1640     0.0290 ha         1 JYS       0.135000
     32 H3           1.2130    -2.5040     0.2250 h4         1 JYS       0.230000
     33 H4          -2.9050    -0.7960     2.0350 h1         1 JYS       0.071450
     34 H5          -2.2490    -2.4150     1.7860 h1         1 JYS       0.071450
     35 H6          -2.9580    -2.4750    -0.5140 h1         1 JYS       0.065950
     36 H7          -4.3170    -1.8820     0.4480 h1         1 JYS       0.065950
     37 H8          -2.0200     0.8200    -1.9050 h1         1 JYS       0.065950
     38 H9          -1.5880    -0.8900    -1.8420 h1         1 JYS       0.065950
     39 H10         -0.0090     0.3080    -0.4750 h1         1 JYS       0.071450
     40 H11         -1.2860     1.1840     0.3800 h1         1 JYS       0.071450
     41 H12         -6.4770     1.8600     0.4190 ha         1 JYS       0.122500
     42 H13         -8.8260     1.1110     0.6890 ha         1 JYS       0.118000
     43 H14         -9.5360    -1.1260    -0.1500 ha         1 JYS       0.116000
     44 H15         -7.8840    -2.6060    -1.2870 ha         1 JYS       0.118000
     45 H16         -5.5410    -1.8680    -1.5840 ha         1 JYS       0.122500
     46 H17          3.2660    -2.8410    -1.2840 hn         1 JYS       0.369000
@<TRIPOS>BOND
     1     1     2 ar  
     2     1     6 ar  
     3     1    30 1   
     4     2     3 ar  
     5     2    22 1   
     6     3     4 ar  
     7     3    23 1   
     8     4     5 ar  
     9     4     8 1   
    10     5     6 ar  
    11     5    29 1   
    12     6    31 1   
    13     7     8 2   
    14     7    23 1   
    15     7    32 1   
    16     8     9 1   
    17     9    10 1   
    18     9    26 2   
    19    10    24 1   
    20    10    27 2   
    21    11    12 1   
    22    11    24 1   
    23    11    33 1   
    24    11    34 1   
    25    12    25 1   
    26    12    35 1   
    27    12    36 1   
    28    13    14 1   
    29    13    25 1   
    30    13    37 1   
    31    13    38 1   
    32    14    24 1   
    33    14    39 1   
    34    14    40 1   
    35    15    16 1   
    36    15    25 1   
    37    15    28 2   
    38    16    17 ar  
    39    16    21 ar  
    40    17    18 ar  
    41    17    41 1   
    42    18    19 ar  
    43    18    42 1   
    44    19    20 ar  
    45    19    43 1   
    46    20    21 ar  
    47    20    44 1   
    48    21    45 1   
    49    23    46 1   
@<TRIPOS>SUBSTRUCTURE
     1 JYS         1 TEMP              0 ****  ****    0 ROOT
