@<TRIPOS>MOLECULE
JYS
   46    49     1     0     0
SMALL
abcg2


@<TRIPOS>ATOM
      1 C01          5.4510     0.0070    -1.5300 ca         1 JYS      -0.139000
      2 C02          4.5760    -1.0340    -1.6790 ca         1 JYS       0.176000
      3 C03          3.4770    -1.1280    -0.8390 ca         1 JYS      -0.115200
      4 C04          3.2170    -0.1910     0.1850 ca         1 JYS       0.005200
      5 C05          4.1060     0.8910     0.2900 ca         1 JYS       0.004100
      6 C06          5.2030     0.9700    -0.5460 ca         1 JYS      -0.077000
      7 C07          1.6100    -1.7880     0.1350 cc         1 JYS      -0.089100
      8 C08          1.9970    -0.6480     0.8180 cd         1 JYS      -0.243400
      9 C09          1.2650    -0.1990     1.9840 c          1 JYS       0.539300
     10 C10         -0.0860    -0.8790     2.2230 c          1 JYS       0.511100
     11 C11         -2.4780    -0.9210     1.7630 c6         1 JYS       0.068000
     12 C12         -3.0280    -1.3260     0.4000 c6         1 JYS       0.073500
     13 C13         -1.6510     0.3550    -0.6590 c6         1 JYS       0.073500
     14 C14         -1.1040     0.7800     0.6970 c6         1 JYS       0.068000
     15 C15         -4.0640     0.5400    -0.8770 c          1 JYS       0.614700
     16 C16         -5.4100    -0.1040    -0.7820 ca         1 JYS      -0.147600
     17 C17         -6.4400     0.5850    -0.1490 ca         1 JYS      -0.075500
     18 C18         -7.7180     0.0480    -0.1140 ca         1 JYS      -0.116500
     19 C19         -7.9820    -1.1650    -0.7380 ca         1 JYS      -0.091000
     20 C20         -6.9610    -1.8440    -1.3900 ca         1 JYS      -0.116500
     21 C21         -5.6760    -1.3210    -1.4060 ca         1 JYS      -0.075500
     22 F22          4.7500    -1.9670    -2.6210 f          1 JYS      -0.175000
     23 N23          2.4860    -2.0700    -0.8330 na         1 JYS      -0.185700
     24 N24         -1.1530    -0.3440     1.6160 n          1 JYS      -0.400800
     25 N25         -2.9860    -0.1980    -0.5160 n          1 JYS      -0.405800
     26 O26          1.6420     0.5980     2.8170 o          1 JYS      -0.473100
     27 O27         -0.1120    -1.8430     2.9730 o          1 JYS      -0.586100
     28 O28         -3.9710     1.6790    -1.3110 o          1 JYS      -0.584100
     29 BR           3.8420     2.3130     1.4950 br         1 JYS      -0.056100
     30 H1           6.3160     0.0950    -2.1730 ha         1 JYS       0.139000
     31 H2           5.8930     1.7980    -0.4590 ha         1 JYS       0.135000
     32 H3           0.7680    -2.4410     0.3040 h4         1 JYS       0.230000
     33 H4          -3.1390    -0.1830     2.2270 h1         1 JYS       0.071450
     34 H5          -2.4320    -1.7880     2.4170 h1         1 JYS       0.071450
     35 H6          -2.4320    -2.1440    -0.0120 h1         1 JYS       0.065950
     36 H7          -4.0440    -1.6900     0.5240 h1         1 JYS       0.065950
     37 H8          -1.6660     1.2020    -1.3380 h1         1 JYS       0.065950
     38 H9          -1.0030    -0.4140    -1.0910 h1         1 JYS       0.065950
     39 H10         -0.0890     1.1550     0.5800 h1         1 JYS       0.071450
     40 H11         -1.7040     1.5990     1.1010 h1         1 JYS       0.071450
     41 H12         -6.2400     1.5360     0.3290 ha         1 JYS       0.122500
     42 H13         -8.5110     0.5790     0.3970 ha         1 JYS       0.118000
     43 H14         -8.9820    -1.5770    -0.7210 ha         1 JYS       0.116000
     44 H15         -7.1640    -2.7830    -1.8870 ha         1 JYS       0.118000
     45 H16         -4.8850    -1.8550    -1.9170 ha         1 JYS       0.122500
     46 H17          2.4240    -2.8650    -1.4500 hn         1 JYS       0.369000
@<TRIPOS>BOND
     1     1     2 ar  
     2     1     6 ar  
     3     1    30 1   
     4     2     3 ar  
     5     2    22 1   
     6     3     4 ar  
     7     3    23 1   
     8     4     5 ar  
     9     4     8 1   
    10     5     6 ar  
    11     5    29 1   
    12     6    31 1   
    13     7     8 2   
    14     7    23 1   
    15     7    32 1   
    16     8     9 1   
    17     9    10 1   
    18     9    26 2   
    19    10    24 1   
    20    10    27 2   
    21    11    12 1   
    22    11    24 1   
    23    11    33 1   
    24    11    34 1   
    25    12    25 1   
    26    12    35 1   
    27    12    36 1   
    28    13    14 1   
    29    13    25 1   
    30    13    37 1   
    31    13    38 1   
    32    14    24 1   
    33    14    39 1   
    34    14    40 1   
    35    15    16 1   
    36    15    25 1   
    37    15    28 2   
    38    16    17 ar  
    39    16    21 ar  
    40    17    18 ar  
    41    17    41 1   
    42    18    19 ar  
    43    18    42 1   
    44    19    20 ar  
    45    19    43 1   
    46    20    21 ar  
    47    20    44 1   
    48    21    45 1   
    49    23    46 1   
@<TRIPOS>SUBSTRUCTURE
     1 JYS         1 TEMP              0 ****  ****    0 ROOT
