@<TRIPOS>MOLECULE
JYT
   25    26     1     0     0
SMALL
bcc


@<TRIPOS>ATOM
      1 C2           2.9240     2.1360     0.3890 ca         1 JYT       0.715900
      2 C4           1.1880     0.7980     0.3500 ca         1 JYT       0.462800
      3 C5           1.9430    -0.2670    -0.1130 ca         1 JYT      -0.237200
      4 C6           3.3140    -0.0200    -0.3170 ca         1 JYT       0.787200
      5 C8          -0.0190    -0.9840     0.0720 cc         1 JYT       0.350800
      6 CAE         -3.1480     2.5400     0.1280 c3         1 JYT       0.145400
      7 CAF         -1.9640     1.7080    -0.3260 c3         1 JYT      -0.105400
      8 N1           3.7700     1.2080    -0.0510 nb         1 JYT      -0.830000
      9 N3           1.6270     2.0240     0.6170 nb         1 JYT      -0.749000
     10 N6           4.1580    -0.9500    -0.7620 nv         1 JYT      -0.951500
     11 N7           1.1610    -1.3810    -0.2800 nd         1 JYT      -0.513100
     12 N9          -0.0860     0.3200     0.4750 na         1 JYT      -0.236000
     13 OAB         -3.7830     3.0760    -1.0100 oh         1 JYT      -0.593800
     14 BR8         -1.5160    -2.0770     0.0550 br         1 JYT       0.017700
     15 H1           3.3610     3.1100     0.5840 h5         1 JYT       0.048100
     16 H2          -3.8320     1.9080     0.7100 h1         1 JYT       0.017700
     17 H3          -2.7980     3.3320     0.8040 h1         1 JYT       0.017700
     18 H4          -2.3090     0.9120    -0.9900 hc         1 JYT       0.070200
     19 H5          -1.2670     2.3300    -0.8940 hc         1 JYT       0.070200
     20 H6          -0.8730     1.8890     1.5320 h1         1 JYT       0.072700
     21 H7          -1.9070     0.4760     1.4610 h1         1 JYT       0.072700
     22 H8           5.1340    -0.7370    -0.8720 hn         1 JYT       0.453800
     23 H9           3.8510    -1.8890    -0.9470 hn         1 JYT       0.453800
     24 H10         -4.5620     3.5570    -0.7190 ho         1 JYT       0.407000
     25 CAG         -1.2410     1.1050     0.8710 c3         1 JYT       0.052300
@<TRIPOS>BOND
     1     1     8 ar  
     2     1     9 ar  
     3     1    15 1   
     4     2     3 ar  
     5     2     9 ar  
     6     2    12 1   
     7     3     4 ar  
     8     3    11 1   
     9     4     8 ar  
    10     4    10 1   
    11     5    11 2   
    12     5    12 1   
    13     5    14 1   
    14     6     7 1   
    15     6    13 1   
    16     6    16 1   
    17     6    17 1   
    18     7    18 1   
    19     7    19 1   
    20     7    25 1   
    21    10    22 1   
    22    10    23 1   
    23    12    25 1   
    24    13    24 1   
    25    20    25 1   
    26    21    25 1   
@<TRIPOS>SUBSTRUCTURE
     1 JYT         1 TEMP              0 ****  ****    0 ROOT
