@<TRIPOS>MOLECULE
JYT
   25    26     1     0     0
SMALL
No Charge or Current Charge


@<TRIPOS>ATOM
      1 C2           3.0160     2.1730     0.3230 ca         1 JYT       0.189900
      2 C4           1.1810     0.8090     0.3110 ca         1 JYT       0.134500
      3 C5           1.9550    -0.2320    -0.1420 ca         1 JYT      -0.106600
      4 C6           3.3270     0.0080    -0.3540 ca         1 JYT       0.458900
      5 C8          -0.0280    -1.0540     0.0310 cc         1 JYT       0.350800
      6 CAE         -3.2080     2.5560     0.1560 c3         1 JYT       0.168600
      7 CAF         -1.9940     1.7320    -0.3070 c3         1 JYT      -0.105400
      8 N1           3.8670     1.2150    -0.1200 nb         1 JYT      -0.304000
      9 N3           1.6880     2.0340     0.5530 nb         1 JYT      -0.223000
     10 N6           4.1810    -0.9530    -0.7970 nv         1 JYT      -1.061900
     11 N7           1.2190    -1.4120    -0.3220 nd         1 JYT      -0.513100
     12 N9          -0.0760     0.2870     0.4220 na         1 JYT      -0.265300
     13 OAB         -3.8600     3.1270    -0.9810 oh         1 JYT      -0.656000
     14 Br8         -1.5340    -2.1950     0.0000 br         1 JYT       0.017700
     15 H1           3.4440     3.1550     0.5150 h5         1 JYT       0.048100
     16 H2          -3.9010     1.9060     0.7060 h1         1 JYT       0.017700
     17 H3          -2.8710     3.3480     0.8390 h1         1 JYT       0.017700
     18 H4          -2.3310     0.9510    -0.9980 hc         1 JYT       0.070200
     19 H5          -1.3060     2.3820    -0.8620 hc         1 JYT       0.070200
     20 H6          -0.8910     1.8610     1.5580 h1         1 JYT       0.072700
     21 H7          -1.9180     0.4270     1.4260 h1         1 JYT       0.072700
     22 H8           5.1760    -0.8090    -0.6490 hn         1 JYT       0.509000
     23 H9           3.8500    -1.9150    -0.7660 hn         1 JYT       0.509000
     24 H10         -4.6260     3.6430    -0.6420 ho         1 JYT       0.446000
     25 CAG         -1.2360     1.0800     0.8670 c3         1 JYT       0.081600
@<TRIPOS>BOND
     1     1     8 ar  
     2     1     9 ar  
     3     1    15 1   
     4     2     3 ar  
     5     2     9 ar  
     6     2    12 1   
     7     3     4 ar  
     8     3    11 1   
     9     4     8 ar  
    10     4    10 1   
    11     5    11 2   
    12     5    12 1   
    13     5    14 1   
    14     6     7 1   
    15     6    13 1   
    16     6    16 1   
    17     6    17 1   
    18     7    18 1   
    19     7    19 1   
    20     7    25 1   
    21    10    22 1   
    22    10    23 1   
    23    12    25 1   
    24    13    24 1   
    25    20    25 1   
    26    21    25 1   
@<TRIPOS>SUBSTRUCTURE
     1 JYT         1 TEMP              0 ****  ****    0 ROOT
