@<TRIPOS>MOLECULE
JYU
   61    65     1     0     0
SMALL
No Charge or Current Charge


@<TRIPOS>ATOM
      1 C10         95.2490    -7.7690    12.2730 cc         1 JYU       0.002000
      2 C15        100.2000    -3.8460    11.1770 cc         1 JYU       0.255300
      3 C16         98.8760    -6.4390     9.1070 c3         1 JYU       0.123000
      4 C17         92.1910    -8.9740    15.5530 ca         1 JYU       0.019800
      5 C18         93.6380   -10.3850    11.0390 c3         1 JYU       0.144300
      6 C20         95.5470   -11.1140     9.6670 ca         1 JYU       0.583300
      7 C23        101.1530    -2.7370    11.5180 c3         1 JYU      -0.116400
      8 C24         98.9950    -7.8840     9.6660 c3         1 JYU      -0.098767
      9 C25         97.4410    -6.2050     8.5590 c3         1 JYU      -0.098767
     10 C26         99.8600    -6.3220     7.9040 c3         1 JYU      -0.098767
     11 C27         95.2170   -12.0130     7.5600 ca         1 JYU       0.378900
     12 C28         96.9410   -11.1990     9.5280 ca         1 JYU      -0.184000
     13 C1          93.6830    -8.1170    13.8970 cd         1 JYU      -0.208000
     14 C2          94.1510    -8.5180    12.7380 cc         1 JYU      -0.175000
     15 N3          92.7650    -9.0700    14.2850 na         1 JYU       0.247000
     16 C4          98.5130    -5.2580    11.4150 cd         1 JYU      -0.030400
     17 N5          92.5340   -10.0280    13.2900 nd         1 JYU      -0.485800
     18 N6          99.1880    -5.4360    10.1860 na         1 JYU       0.129800
     19 S7          94.6380    -6.9160    14.7350 ss         1 JYU       0.304000
     20 C8          93.4090    -9.6550    12.3440 cc         1 JYU       0.301300
     21 C9          95.6310    -6.8230    13.2290 cd         1 JYU      -0.306600
     22 N11        100.2490    -4.5340    10.0570 nd         1 JYU      -0.520800
     23 C12         99.1700    -4.2420    12.0360 cc         1 JYU      -0.210000
     24 N13         97.4160    -5.9670    11.8920 ns         1 JYU      -0.401100
     25 C14         96.7440    -5.8590    13.0950 c          1 JYU       0.647700
     26 N19         94.6920   -11.5140     8.7010 nb         1 JYU      -0.758000
     27 O21         97.0340    -5.0590    13.9720 o          1 JYU      -0.579100
     28 O22         95.0570   -10.5890    10.8370 os         1 JYU      -0.462300
     29 C29         92.3620   -10.0170    16.4840 ca         1 JYU      -0.110500
     30 C30         91.4330    -7.8410    15.9120 ca         1 JYU      -0.110500
     31 C31         96.6000   -12.1290     7.3410 ca         1 JYU      -0.203000
     32 C32         97.4890   -11.7140     8.3440 ca         1 JYU      -0.045000
     33 C33         91.7880    -9.9250    17.7650 ca         1 JYU      -0.094500
     34 C34         90.8590    -7.7490    17.1920 ca         1 JYU      -0.094500
     35 C35         91.0380    -8.7910    18.1190 ca         1 JYU      -0.110000
     36 H36         95.7260    -7.9660    11.3180 ha         1 JYU       0.138000
     37 H39         93.1050   -11.3440    11.0600 h1         1 JYU       0.070200
     38 H40         93.2140    -9.7770    10.2290 h1         1 JYU       0.070200
     39 H42        101.8850    -2.5800    10.7180 hc         1 JYU       0.045700
     40 H43        100.6120    -1.7960    11.6710 hc         1 JYU       0.045700
     41 H41        101.7010    -2.9680    12.4390 hc         1 JYU       0.045700
     42 H45         98.8190    -8.6250     8.8770 hc         1 JYU       0.048700
     43 H46         99.9980    -8.0580    10.0740 hc         1 JYU       0.048700
     44 H44         98.2710    -8.0770    10.4640 hc         1 JYU       0.048700
     45 H49         97.2180    -6.8990     7.7400 hc         1 JYU       0.048700
     46 H48         96.6780    -6.3530     9.3300 hc         1 JYU       0.048700
     47 H47         97.3370    -5.1830     8.1740 hc         1 JYU       0.048700
     48 H51         99.6210    -7.0580     7.1260 hc         1 JYU       0.048700
     49 H50         99.8080    -5.3270     7.4450 hc         1 JYU       0.048700
     50 H52        100.8950    -6.5000     8.2200 hc         1 JYU       0.048700
     51 H53         94.5080   -12.3290     6.7960 h4         1 JYU       0.020100
     52 H54         97.5830   -10.8630    10.3360 ha         1 JYU       0.138000
     53 H37         98.9670    -3.7980    13.0030 ha         1 JYU       0.149000
     54 H38         97.0300    -6.6860    11.3000 hn         1 JYU       0.330500
     55 H55         92.9430   -10.8970    16.2150 ha         1 JYU       0.133000
     56 H56         91.2870    -7.0330    15.1980 ha         1 JYU       0.133000
     57 H57         96.9690   -12.5360     6.4040 ha         1 JYU       0.128000
     58 H58         98.5660   -11.7900     8.2080 ha         1 JYU       0.121000
     59 H59         91.9250   -10.7320    18.4810 ha         1 JYU       0.121000
     60 H60         90.2750    -6.8720    17.4660 ha         1 JYU       0.121000
     61 H61         90.5930    -8.7200    19.1090 ha         1 JYU       0.120000
@<TRIPOS>BOND
     1     1    14 1   
     2     1    21 2   
     3     1    36 1   
     4     2     7 1   
     5     2    22 2   
     6     2    23 1   
     7     3     8 1   
     8     3     9 1   
     9     3    10 1   
    10     3    18 1   
    11     4    15 1   
    12     4    29 ar  
    13     4    30 ar  
    14     5    20 1   
    15     5    28 1   
    16     5    37 1   
    17     5    38 1   
    18     6    12 ar  
    19     6    26 ar  
    20     6    28 1   
    21     7    39 1   
    22     7    40 1   
    23     7    41 1   
    24     8    42 1   
    25     8    43 1   
    26     8    44 1   
    27     9    45 1   
    28     9    46 1   
    29     9    47 1   
    30    10    48 1   
    31    10    49 1   
    32    10    50 1   
    33    11    26 ar  
    34    11    31 ar  
    35    11    51 1   
    36    12    32 ar  
    37    12    52 1   
    38    13    14 2   
    39    13    15 1   
    40    13    19 1   
    41    14    20 1   
    42    15    17 1   
    43    16    18 1   
    44    16    23 2   
    45    16    24 1   
    46    17    20 2   
    47    18    22 1   
    48    19    21 1   
    49    21    25 1   
    50    23    53 1   
    51    24    25 1   
    52    24    54 1   
    53    25    27 2   
    54    29    33 ar  
    55    29    55 1   
    56    30    34 ar  
    57    30    56 1   
    58    31    32 ar  
    59    31    57 1   
    60    32    58 1   
    61    33    35 ar  
    62    33    59 1   
    63    34    35 ar  
    64    34    60 1   
    65    35    61 1   
@<TRIPOS>SUBSTRUCTURE
     1 JYU         1 TEMP              0 ****  ****    0 ROOT
