@<TRIPOS>MOLECULE
JYU
   61    65     1     0     0
SMALL
abcg2


@<TRIPOS>ATOM
      1 C10         95.8090    -8.5180    11.8880 cc         1 JYU       0.002000
      2 C15        100.8680    -4.5000    11.1870 cc         1 JYU       0.255300
      3 C16         98.0110    -4.1290     9.1440 c3         1 JYU       0.123000
      4 C17         92.1290    -8.8440    14.9300 ca         1 JYU       0.019800
      5 C18         94.1510   -11.5850    11.5300 c3         1 JYU       0.144300
      6 C20         95.9910   -12.8090    10.6830 ca         1 JYU       0.583300
      7 C23        102.2280    -4.0140    11.5560 c3         1 JYU      -0.116400
      8 C24         97.2310    -5.2970     8.5400 c3         1 JYU      -0.098767
      9 C25         97.0700    -3.1710     9.8740 c3         1 JYU      -0.098767
     10 C26         98.7140    -3.3900     8.0060 c3         1 JYU      -0.098767
     11 C27         95.6060   -14.4370     9.1470 ca         1 JYU       0.378900
     12 C28         97.3760   -13.0040    10.6300 ca         1 JYU      -0.184000
     13 C1          94.0600    -8.4400    13.4170 cd         1 JYU      -0.208000
     14 C2          94.6910    -9.1930    12.4410 cc         1 JYU      -0.175000
     15 N3          93.0440    -9.1730    13.9120 na         1 JYU       0.247000
     16 C4          98.9550    -5.5690    11.0590 cd         1 JYU      -0.030400
     17 N5          92.9970   -10.3760    13.3040 nd         1 JYU      -0.485800
     18 N6          99.0330    -4.6100    10.1040 na         1 JYU       0.129800
     19 S7          94.7960    -6.9210    13.7030 ss         1 JYU       0.304000
     20 C8          93.9630   -10.4090    12.4190 cc         1 JYU       0.301300
     21 C9          95.9810    -7.2950    12.4630 cd         1 JYU      -0.306600
     22 N11        100.1910    -3.9580    10.1910 nd         1 JYU      -0.520800
     23 C12        100.1280    -5.5350    11.7730 cc         1 JYU      -0.210000
     24 N13         97.8610    -6.4170    11.2460 ns         1 JYU      -0.401100
     25 C14         96.9910    -6.2460    12.2710 c          1 JYU       0.647700
     26 N19         95.1310   -13.5000     9.9690 nb         1 JYU      -0.758000
     27 O21         97.0110    -5.2790    13.0140 o          1 JYU      -0.579100
     28 O22         95.5440   -11.8610    11.5180 os         1 JYU      -0.462300
     29 C29         91.6460    -9.8400    15.7710 ca         1 JYU      -0.110500
     30 C30         91.7210    -7.5250    15.0880 ca         1 JYU      -0.110500
     31 C31         96.9500   -14.7170     9.0100 ca         1 JYU      -0.203000
     32 C32         97.8490   -13.9760     9.7770 ca         1 JYU      -0.045000
     33 C33         90.7490    -9.5060    16.7730 ca         1 JYU      -0.094500
     34 C34         90.8340    -7.2030    16.1050 ca         1 JYU      -0.094500
     35 C35         90.3440    -8.1890    16.9490 ca         1 JYU      -0.110000
     36 H36         96.4500    -8.9290    11.1210 ha         1 JYU       0.138000
     37 H39         93.5730   -12.4360    11.8990 h1         1 JYU       0.070200
     38 H40         93.7980   -11.3570    10.5200 h1         1 JYU       0.070200
     39 H42        102.5190    -3.1690    10.9330 hc         1 JYU       0.045700
     40 H43        102.2640    -3.6940    12.5980 hc         1 JYU       0.045700
     41 H41        102.9770    -4.7960    11.4330 hc         1 JYU       0.045700
     42 H45         96.6350    -4.9200     7.7090 hc         1 JYU       0.048700
     43 H46         97.9000    -6.0630     8.1450 hc         1 JYU       0.048700
     44 H44         96.5430    -5.7610     9.2420 hc         1 JYU       0.048700
     45 H49         96.3290    -2.7760     9.1780 hc         1 JYU       0.048700
     46 H48         96.5360    -3.6670    10.6840 hc         1 JYU       0.048700
     47 H47         97.6240    -2.3280    10.2900 hc         1 JYU       0.048700
     48 H51         97.9580    -3.0780     7.2860 hc         1 JYU       0.048700
     49 H50         99.2380    -2.5010     8.3480 hc         1 JYU       0.048700
     50 H52         99.4260    -4.0350     7.4900 hc         1 JYU       0.048700
     51 H53         94.8680   -14.9860     8.5730 h4         1 JYU       0.020100
     52 H54         98.0410   -12.4070    11.2400 ha         1 JYU       0.138000
     53 H37        100.4000    -6.1750    12.5970 ha         1 JYU       0.149000
     54 H38         97.7910    -7.2360    10.6600 hn         1 JYU       0.330500
     55 H55         91.9700   -10.8640    15.6460 ha         1 JYU       0.133000
     56 H56         92.0590    -6.7510    14.4110 ha         1 JYU       0.133000
     57 H57         97.2860   -15.4860     8.3300 ha         1 JYU       0.128000
     58 H58         98.9130   -14.1590     9.7040 ha         1 JYU       0.121000
     59 H59         90.3730   -10.2820    17.4270 ha         1 JYU       0.121000
     60 H60         90.5160    -6.1760    16.2240 ha         1 JYU       0.121000
     61 H61         89.6490    -7.9340    17.7380 ha         1 JYU       0.120000
@<TRIPOS>BOND
     1     1    14 1   
     2     1    21 2   
     3     1    36 1   
     4     2     7 1   
     5     2    22 2   
     6     2    23 1   
     7     3     8 1   
     8     3     9 1   
     9     3    10 1   
    10     3    18 1   
    11     4    15 1   
    12     4    29 ar  
    13     4    30 ar  
    14     5    20 1   
    15     5    28 1   
    16     5    37 1   
    17     5    38 1   
    18     6    12 ar  
    19     6    26 ar  
    20     6    28 1   
    21     7    39 1   
    22     7    40 1   
    23     7    41 1   
    24     8    42 1   
    25     8    43 1   
    26     8    44 1   
    27     9    45 1   
    28     9    46 1   
    29     9    47 1   
    30    10    48 1   
    31    10    49 1   
    32    10    50 1   
    33    11    26 ar  
    34    11    31 ar  
    35    11    51 1   
    36    12    32 ar  
    37    12    52 1   
    38    13    14 2   
    39    13    15 1   
    40    13    19 1   
    41    14    20 1   
    42    15    17 1   
    43    16    18 1   
    44    16    23 2   
    45    16    24 1   
    46    17    20 2   
    47    18    22 1   
    48    19    21 1   
    49    21    25 1   
    50    23    53 1   
    51    24    25 1   
    52    24    54 1   
    53    25    27 2   
    54    29    33 ar  
    55    29    55 1   
    56    30    34 ar  
    57    30    56 1   
    58    31    32 ar  
    59    31    57 1   
    60    32    58 1   
    61    33    35 ar  
    62    33    59 1   
    63    34    35 ar  
    64    34    60 1   
    65    35    61 1   
@<TRIPOS>SUBSTRUCTURE
     1 JYU         1 TEMP              0 ****  ****    0 ROOT
