@<TRIPOS>MOLECULE
JYV
   83    87     1     0     0
SMALL
No Charge or Current Charge


@<TRIPOS>ATOM
      1 C10        -47.6680   -29.0020   -13.0150 c6         1 JYV       0.106500
      2 C11        -47.5780   -27.4750   -12.7930 c6         1 JYV      -0.095400
      3 C12        -46.6540   -26.7940   -13.8300 c6         1 JYV      -0.049700
      4 C13        -45.2520   -27.4390   -13.7140 c6         1 JYV      -0.095400
      5 C14        -45.3020   -28.9660   -13.9470 c6         1 JYV       0.106500
      6 C15        -52.7070   -32.2320   -15.8050 cc         1 JYV       0.239000
      7 C16        -53.3800   -32.0890   -16.9980 cd         1 JYV      -0.234000
      8 C17        -54.7290   -32.8030   -15.1080 cd         1 JYV       0.445700
      9 C18        -55.8270   -33.2140   -14.1370 c3         1 JYV       0.126500
     10 C19        -55.9670   -35.7350   -14.1440 c3         1 JYV       0.169800
     11 C20        -54.6730   -36.0870   -14.9150 c3         1 JYV      -0.071400
     12 C21        -46.6570   -25.2270   -13.7100 c3         1 JYV       0.050700
     13 C22        -45.9520   -24.5400   -14.8920 ca         1 JYV      -0.085300
     14 C23        -46.7100   -24.1560   -16.0180 ca         1 JYV      -0.100000
     15 C24        -46.0950   -23.5340   -17.1190 ca         1 JYV      -0.108000
     16 C25        -44.7130   -23.2910   -17.1080 ca         1 JYV      -0.104000
     17 C26        -43.9450   -23.6720   -15.9960 ca         1 JYV      -0.108000
     18 C27        -44.5580   -24.2940   -14.8950 ca         1 JYV      -0.100000
     19 C28        -46.1620   -24.7170   -12.4150 c1         1 JYV       0.303900
     20 C29        -46.3560   -31.0770   -16.8770 c3         1 JYV       0.149900
     21 C30        -57.9980   -34.3730   -13.9290 c3         1 JYV       0.156100
     22 C31        -54.8710   -36.2740   -16.4390 c3         1 JYV       0.165800
     23 C01        -51.2390   -31.9630   -15.7520 ca         1 JYV       0.293000
     24 C02        -50.5000   -32.1040   -14.5510 ca         1 JYV      -0.069200
     25 C03        -49.1490   -31.8550   -14.4860 ca         1 JYV      -0.056800
     26 C04        -48.4590   -31.4990   -15.6630 ca         1 JYV       0.143100
     27 C05        -49.2460   -31.3640   -16.8420 ca         1 JYV       0.224900
     28 C06        -49.8980   -32.5530   -12.3820 cc         1 JYV      -0.069100
     29 C07        -48.7810   -32.1120   -13.0880 cd         1 JYV      -0.236400
     30 C08        -47.4880   -31.8910   -12.3510 c          1 JYV       0.545300
     31 C32        -56.0870   -37.3540   -18.2850 c3         1 JYV       0.149600
     32 C33        -55.2320   -38.7400   -16.4500 c3         1 JYV       0.149600
     33 N34        -50.5890   -31.5790   -16.8900 nb         1 JYV      -0.631000
     34 N35        -50.9510   -32.5210   -13.3100 na         1 JYV      -0.184700
     35 N36        -46.3550   -29.6970   -13.1800 n          1 JYV      -0.390800
     36 N37        -53.4670   -32.6260   -14.7210 nc         1 JYV      -0.698000
     37 N38        -56.6260   -34.4390   -14.4840 n3         1 JYV      -0.725600
     38 N39        -45.7910   -24.3300   -11.3790 n1         1 JYV      -0.456000
     39 N40        -55.7470   -37.4070   -16.8460 n3         1 JYV      -0.719600
     40 O41        -47.3820   -32.2720   -11.1830 o          1 JYV      -0.537100
     41 O42        -45.2280   -31.7070   -13.3220 o          1 JYV      -0.595100
     42 S44        -55.0840   -32.4530   -16.7990 ss         1 JYV       0.017600
     43 H1         -48.2180   -29.4320   -12.1670 h1         1 JYV       0.054200
     44 H2         -48.2680   -29.1860   -13.9170 h1         1 JYV       0.054200
     45 H3         -48.5880   -27.0460   -12.8380 hc         1 JYV       0.059950
     46 H4         -47.2070   -27.2900   -11.7750 hc         1 JYV       0.059950
     47 H5         -47.0510   -27.0130   -14.8330 hc         1 JYV       0.051700
     48 H6         -44.5600   -26.9990   -14.4430 hc         1 JYV       0.059950
     49 H7         -44.8250   -27.2450   -12.7200 hc         1 JYV       0.059950
     50 H8         -45.4750   -29.1460   -15.0170 h1         1 JYV       0.054200
     51 H9         -44.3140   -29.3830   -13.7090 h1         1 JYV       0.054200
     52 H10        -52.9870   -31.7920   -17.9620 h4         1 JYV       0.177000
     53 H13        -55.3870   -33.3250   -13.1360 h1         1 JYV       0.055200
     54 H14        -56.4980   -32.3470   -14.0760 h1         1 JYV       0.055200
     55 H15        -56.6750   -36.5580   -14.3150 h1         1 JYV       0.040200
     56 H16        -55.7340   -35.7510   -13.0700 h1         1 JYV       0.040200
     57 H17        -53.9150   -35.3190   -14.7430 hc         1 JYV       0.044700
     58 H18        -54.2490   -37.0010   -14.4870 hc         1 JYV       0.044700
     59 H19        -47.7070   -24.9120   -13.7390 hc         1 JYV       0.077700
     60 H20        -47.7820   -24.3420   -16.0450 ha         1 JYV       0.117000
     61 H21        -46.6910   -23.2430   -17.9810 ha         1 JYV       0.116000
     62 H22        -44.2370   -22.8100   -17.9600 ha         1 JYV       0.115000
     63 H23        -42.8730   -23.4880   -15.9880 ha         1 JYV       0.116000
     64 H24        -43.9410   -24.5870   -14.0480 ha         1 JYV       0.117000
     65 H25        -45.2820   -31.0150   -16.6630 h1         1 JYV       0.045700
     66 H26        -46.5100   -31.8740   -17.6160 h1         1 JYV       0.045700
     67 H27        -46.6710   -30.1220   -17.3180 h1         1 JYV       0.045700
     68 H28        -58.5940   -35.2340   -14.2610 h1         1 JYV       0.036033
     69 H29        -57.9770   -34.3720   -12.8300 h1         1 JYV       0.036033
     70 H30        -58.5120   -33.4630   -14.2650 h1         1 JYV       0.036033
     71 H31        -55.2850   -35.3370   -16.8360 h1         1 JYV       0.036700
     72 H32        -53.8800   -36.3960   -16.8990 h1         1 JYV       0.036700
     73 H33        -48.7930   -31.0870   -17.7930 h4         1 JYV       0.022100
     74 H34        -50.0290   -32.8290   -11.3380 h4         1 JYV       0.235000
     75 H35        -56.8000   -38.1470   -18.5460 h1         1 JYV       0.029700
     76 H36        -56.5490   -36.3900   -18.5390 h1         1 JYV       0.029700
     77 H37        -55.1890   -37.4800   -18.9050 h1         1 JYV       0.029700
     78 H38        -55.9120   -39.5330   -16.7900 h1         1 JYV       0.029700
     79 H39        -54.2430   -38.9250   -16.8920 h1         1 JYV       0.029700
     80 H40        -55.1480   -38.8280   -15.3600 h1         1 JYV       0.029700
     81 H41        -51.9220   -32.7630   -13.1200 hn         1 JYV       0.391000
     82 C09        -46.2630   -31.1080   -13.0190 c          1 JYV       0.543100
     83 O43        -47.0890   -31.3490   -15.6700 os         1 JYV      -0.336100
@<TRIPOS>BOND
     1     1     2 1   
     2     1    35 1   
     3     1    43 1   
     4     1    44 1   
     5     2     3 1   
     6     2    45 1   
     7     2    46 1   
     8     3     4 1   
     9     3    12 1   
    10     3    47 1   
    11     4     5 1   
    12     4    48 1   
    13     4    49 1   
    14     5    35 1   
    15     5    50 1   
    16     5    51 1   
    17     6     7 2   
    18     6    23 1   
    19     6    36 1   
    20     7    42 1   
    21     7    52 1   
    22     8     9 1   
    23     8    36 2   
    24     8    42 1   
    25     9    37 1   
    26     9    53 1   
    27     9    54 1   
    28    10    11 1   
    29    10    37 1   
    30    10    55 1   
    31    10    56 1   
    32    11    22 1   
    33    11    57 1   
    34    11    58 1   
    35    12    13 1   
    36    12    19 1   
    37    12    59 1   
    38    13    14 ar  
    39    13    18 ar  
    40    14    15 ar  
    41    14    60 1   
    42    15    16 ar  
    43    15    61 1   
    44    16    17 ar  
    45    16    62 1   
    46    17    18 ar  
    47    17    63 1   
    48    18    64 1   
    49    19    38 3   
    50    20    65 1   
    51    20    66 1   
    52    20    67 1   
    53    20    83 1   
    54    21    37 1   
    55    21    68 1   
    56    21    69 1   
    57    21    70 1   
    58    22    39 1   
    59    22    71 1   
    60    22    72 1   
    61    23    24 ar  
    62    23    33 ar  
    63    24    25 ar  
    64    24    34 1   
    65    25    26 ar  
    66    25    29 1   
    67    26    27 ar  
    68    26    83 1   
    69    27    33 ar  
    70    27    73 1   
    71    28    29 2   
    72    28    34 1   
    73    28    74 1   
    74    29    30 1   
    75    30    40 2   
    76    30    82 1   
    77    31    39 1   
    78    31    75 1   
    79    31    76 1   
    80    31    77 1   
    81    32    39 1   
    82    32    78 1   
    83    32    79 1   
    84    32    80 1   
    85    34    81 1   
    86    35    82 1   
    87    41    82 2   
@<TRIPOS>SUBSTRUCTURE
     1 JYV         1 TEMP              0 ****  ****    0 ROOT
