@<TRIPOS>MOLECULE
JYV
   83    87     1     0     0
SMALL
abcg2


@<TRIPOS>ATOM
      1 C10        -48.1150   -27.4120   -14.4720 c6         1 JYV       0.106500
      2 C11        -47.4970   -26.3040   -13.6260 c6         1 JYV      -0.095400
      3 C12        -46.0540   -26.0300   -14.0580 c6         1 JYV      -0.049700
      4 C13        -45.2320   -27.3210   -14.0500 c6         1 JYV      -0.095400
      5 C14        -45.9080   -28.4060   -14.8850 c6         1 JYV       0.106500
      6 C15        -53.5880   -32.7800   -16.6040 cc         1 JYV       0.239000
      7 C16        -54.2070   -33.3140   -17.7010 cd         1 JYV      -0.234000
      8 C17        -55.3410   -33.6970   -15.5800 cd         1 JYV       0.445700
      9 C18        -56.3010   -34.0630   -14.4890 c3         1 JYV       0.126500
     10 C19        -55.8360   -36.3570   -13.8120 c3         1 JYV       0.169800
     11 C20        -54.5010   -36.6240   -14.5010 c3         1 JYV      -0.071400
     12 C21        -45.4150   -24.8920   -13.2110 c3         1 JYV       0.050700
     13 C22        -44.0680   -24.4420   -13.7520 ca         1 JYV      -0.085300
     14 C23        -44.0480   -23.5150   -14.7930 ca         1 JYV      -0.100000
     15 C24        -42.8430   -23.1100   -15.3550 ca         1 JYV      -0.108000
     16 C25        -41.6420   -23.6280   -14.8780 ca         1 JYV      -0.104000
     17 C26        -41.6560   -24.5520   -13.8390 ca         1 JYV      -0.108000
     18 C27        -42.8630   -24.9570   -13.2780 ca         1 JYV      -0.100000
     19 C28        -45.3370   -25.2670   -11.8000 c1         1 JYV       0.303900
     20 C29        -48.1310   -29.6650   -17.9400 c3         1 JYV       0.149900
     21 C30        -58.1080   -35.5940   -14.0410 c3         1 JYV       0.156100
     22 C31        -54.6150   -37.3900   -15.8160 c3         1 JYV       0.165800
     23 C01        -52.3210   -32.0450   -16.6020 ca         1 JYV       0.293000
     24 C02        -51.7250   -31.5790   -15.4200 ca         1 JYV      -0.069200
     25 C03        -50.4930   -30.8920   -15.4120 ca         1 JYV      -0.056800
     26 C04        -49.8950   -30.6490   -16.6600 ca         1 JYV       0.143100
     27 C05        -50.5460   -31.1400   -17.7910 ca         1 JYV       0.224900
     28 C06        -51.2800   -31.0680   -13.2940 cc         1 JYV      -0.069100
     29 C07        -50.2080   -30.5710   -14.0310 cd         1 JYV      -0.236400
     30 C08        -49.0920   -29.9090   -13.3890 c          1 JYV       0.545300
     31 C32        -55.5820   -39.2330   -17.0080 c3         1 JYV       0.149600
     32 C33        -54.4300   -39.6490   -14.9510 c3         1 JYV       0.149600
     33 N34        -51.7070   -31.8150   -17.7600 nb         1 JYV      -0.631000
     34 N35        -52.1620   -31.6660   -14.1140 na         1 JYV      -0.184700
     35 N36        -47.2800   -28.6070   -14.4300 n          1 JYV      -0.390800
     36 N37        -54.2530   -33.0060   -15.4120 nc         1 JYV      -0.698000
     37 N38        -56.7400   -35.4550   -14.5360 n3         1 JYV      -0.725600
     38 N39        -45.2840   -25.5730   -10.6920 n1         1 JYV      -0.456000
     39 N40        -55.2480   -38.7020   -15.6940 n3         1 JYV      -0.719600
     40 O41        -49.1250   -29.5400   -12.2160 o          1 JYV      -0.537100
     41 O42        -47.0860   -30.8660   -14.1400 o          1 JYV      -0.595100
     42 S44        -55.6440   -34.1260   -17.2360 ss         1 JYV       0.017600
     43 H1         -49.1170   -27.6510   -14.1260 h1         1 JYV       0.054200
     44 H2         -48.1950   -27.0900   -15.5150 h1         1 JYV       0.054200
     45 H3         -48.0970   -25.3960   -13.7250 hc         1 JYV       0.059950
     46 H4         -47.5220   -26.6070   -12.5760 hc         1 JYV       0.059950
     47 H5         -46.0720   -25.6430   -15.0810 hc         1 JYV       0.051700
     48 H6         -44.2330   -27.1410   -14.4480 hc         1 JYV       0.059950
     49 H7         -45.1170   -27.6820   -13.0240 hc         1 JYV       0.059950
     50 H8         -45.9280   -28.1090   -15.9380 h1         1 JYV       0.054200
     51 H9         -45.3800   -29.3520   -14.8060 h1         1 JYV       0.054200
     52 H10        -53.8780   -33.2850   -18.7260 h4         1 JYV       0.177000
     53 H13        -55.8300   -33.8030   -13.5300 h1         1 JYV       0.055200
     54 H14        -57.1800   -33.4240   -14.5960 h1         1 JYV       0.055200
     55 H15        -56.3570   -37.3080   -13.6940 h1         1 JYV       0.040200
     56 H16        -55.6470   -35.9630   -12.8000 h1         1 JYV       0.040200
     57 H17        -53.9740   -35.6890   -14.6980 hc         1 JYV       0.044700
     58 H18        -53.8710   -37.1740   -13.7970 hc         1 JYV       0.044700
     59 H19        -46.1010   -24.0410   -13.2560 hc         1 JYV       0.077700
     60 H20        -44.9810   -23.1070   -15.1640 ha         1 JYV       0.117000
     61 H21        -42.8420   -22.3870   -16.1600 ha         1 JYV       0.116000
     62 H22        -40.7030   -23.3110   -15.3120 ha         1 JYV       0.115000
     63 H23        -40.7270   -24.9590   -13.4610 ha         1 JYV       0.116000
     64 H24        -42.8620   -25.6760   -12.4690 ha         1 JYV       0.117000
     65 H25        -47.2420   -29.0860   -17.7110 h1         1 JYV       0.045700
     66 H26        -47.8500   -30.5890   -18.4490 h1         1 JYV       0.045700
     67 H27        -48.8000   -29.0820   -18.5760 h1         1 JYV       0.045700
     68 H28        -58.4310   -36.6280   -14.1630 h1         1 JYV       0.036033
     69 H29        -58.2050   -35.3280   -12.9760 h1         1 JYV       0.036033
     70 H30        -58.7760   -34.9530   -14.6170 h1         1 JYV       0.036033
     71 H31        -55.2150   -36.8050   -16.5120 h1         1 JYV       0.036700
     72 H32        -53.6080   -37.4840   -16.2620 h1         1 JYV       0.036700
     73 H33        -50.1200   -30.9850   -18.7730 h4         1 JYV       0.022100
     74 H34        -51.4330   -31.0390   -12.2290 h4         1 JYV       0.235000
     75 H35        -56.0980   -40.1890   -16.9010 h1         1 JYV       0.029700
     76 H36        -56.2420   -38.5390   -17.5310 h1         1 JYV       0.029700
     77 H37        -54.6890   -39.3960   -17.6370 h1         1 JYV       0.029700
     78 H38        -54.9460   -40.6080   -14.8900 h1         1 JYV       0.029700
     79 H39        -53.4480   -39.8160   -15.4290 h1         1 JYV       0.029700
     80 H40        -54.2560   -39.2940   -13.9360 h1         1 JYV       0.029700
     81 H41        -53.0270   -32.1320   -13.8670 hn         1 JYV       0.391000
     82 C09        -47.7300   -29.8150   -14.0820 c          1 JYV       0.543100
     83 O43        -48.7450   -29.9450   -16.6800 os         1 JYV      -0.336100
@<TRIPOS>BOND
     1     1     2 1   
     2     1    35 1   
     3     1    43 1   
     4     1    44 1   
     5     2     3 1   
     6     2    45 1   
     7     2    46 1   
     8     3     4 1   
     9     3    12 1   
    10     3    47 1   
    11     4     5 1   
    12     4    48 1   
    13     4    49 1   
    14     5    35 1   
    15     5    50 1   
    16     5    51 1   
    17     6     7 2   
    18     6    23 1   
    19     6    36 1   
    20     7    42 1   
    21     7    52 1   
    22     8     9 1   
    23     8    36 2   
    24     8    42 1   
    25     9    37 1   
    26     9    53 1   
    27     9    54 1   
    28    10    11 1   
    29    10    37 1   
    30    10    55 1   
    31    10    56 1   
    32    11    22 1   
    33    11    57 1   
    34    11    58 1   
    35    12    13 1   
    36    12    19 1   
    37    12    59 1   
    38    13    14 ar  
    39    13    18 ar  
    40    14    15 ar  
    41    14    60 1   
    42    15    16 ar  
    43    15    61 1   
    44    16    17 ar  
    45    16    62 1   
    46    17    18 ar  
    47    17    63 1   
    48    18    64 1   
    49    19    38 3   
    50    20    65 1   
    51    20    66 1   
    52    20    67 1   
    53    20    83 1   
    54    21    37 1   
    55    21    68 1   
    56    21    69 1   
    57    21    70 1   
    58    22    39 1   
    59    22    71 1   
    60    22    72 1   
    61    23    24 ar  
    62    23    33 ar  
    63    24    25 ar  
    64    24    34 1   
    65    25    26 ar  
    66    25    29 1   
    67    26    27 ar  
    68    26    83 1   
    69    27    33 ar  
    70    27    73 1   
    71    28    29 2   
    72    28    34 1   
    73    28    74 1   
    74    29    30 1   
    75    30    40 2   
    76    30    82 1   
    77    31    39 1   
    78    31    75 1   
    79    31    76 1   
    80    31    77 1   
    81    32    39 1   
    82    32    78 1   
    83    32    79 1   
    84    32    80 1   
    85    34    81 1   
    86    35    82 1   
    87    41    82 2   
@<TRIPOS>SUBSTRUCTURE
     1 JYV         1 TEMP              0 ****  ****    0 ROOT
