@<TRIPOS>MOLECULE
JYW
   28    29     1     0     0
SMALL
bcc


@<TRIPOS>ATOM
      1 C2          -0.6060    -1.0830     0.1060 cc         1 JYW       0.349800
      2 C3          -2.2320     0.2180    -0.1300 ca         1 JYW      -0.236200
      3 C4          -3.4440     0.8880    -0.3810 ca         1 JYW       0.783200
      4 C5          -2.4220     2.8050     0.3830 ca         1 JYW       0.714900
      5 C7           2.0750     0.9270    -0.1710 c3         1 JYW      -0.098400
      6 C1          -1.1990     0.9840     0.3830 ca         1 JYW       0.461800
      7 C8           3.4630     1.3250     0.3120 c3         1 JYW      -0.079400
      8 C9           4.3420     1.7770    -0.8380 c3         1 JYW       0.142400
      9 N1          -0.1470     0.1270     0.5430 na         1 JYW      -0.235000
     10 N2          -1.2390     2.2850     0.6580 nb         1 JYW      -0.747000
     11 N3          -1.8360    -1.0840    -0.2960 nd         1 JYW      -0.514100
     12 N4          -3.4990     2.1970    -0.1090 nb         1 JYW      -0.829000
     13 N5          -4.5260     0.2730    -0.8600 nv         1 JYW      -0.947500
     14 O1           5.6150     2.1210    -0.3380 oh         1 JYW      -0.598800
     15 BR1          0.4700    -2.5930     0.1070 br         1 JYW       0.016700
     16 H1          -2.5370     3.8650     0.5800 h5         1 JYW       0.048100
     17 H2           1.6170    -0.3340     1.5350 h1         1 JYW       0.074700
     18 H3           1.0620     1.3180     1.6980 h1         1 JYW       0.074700
     19 H4           2.1520     0.1120    -0.8960 hc         1 JYW       0.055700
     20 H5           1.6050     1.7660    -0.6910 hc         1 JYW       0.055700
     21 H6           3.3810     2.1310     1.0470 hc         1 JYW       0.055700
     22 H7           3.9350     0.4780     0.8190 hc         1 JYW       0.055700
     23 H8           4.4090     0.9700    -1.5810 h1         1 JYW       0.017700
     24 H9           3.8670     2.6280    -1.3430 h1         1 JYW       0.017700
     25 H10         -5.3410     0.8090    -1.1040 hn         1 JYW       0.451800
     26 H11         -4.4870    -0.6860    -1.1570 hn         1 JYW       0.451800
     27 H12          6.1610     2.4020    -1.0770 ho         1 JYW       0.406000
     28 C6           1.1830     0.5020     0.9860 c3         1 JYW       0.053300
@<TRIPOS>BOND
     1     1     9 1   
     2     1    11 2   
     3     1    15 1   
     4     2     3 ar  
     5     2     6 ar  
     6     2    11 1   
     7     3    12 ar  
     8     3    13 1   
     9     4    10 ar  
    10     4    12 ar  
    11     4    16 1   
    12     5     7 1   
    13     5    19 1   
    14     5    20 1   
    15     5    28 1   
    16     6     9 1   
    17     6    10 ar  
    18     7     8 1   
    19     7    21 1   
    20     7    22 1   
    21     8    14 1   
    22     8    23 1   
    23     8    24 1   
    24     9    28 1   
    25    13    25 1   
    26    13    26 1   
    27    14    27 1   
    28    17    28 1   
    29    18    28 1   
@<TRIPOS>SUBSTRUCTURE
     1 JYW         1 TEMP              0 ****  ****    0 ROOT
