@<TRIPOS>MOLECULE
JYW
   28    29     1     0     0
SMALL
No Charge or Current Charge


@<TRIPOS>ATOM
      1 C2          -0.6170    -1.1360     0.0780 cc         1 JYW       0.349800
      2 C3          -2.2620     0.2430    -0.0840 ca         1 JYW      -0.105600
      3 C4          -3.4960     0.8880    -0.3020 ca         1 JYW       0.454900
      4 C5          -2.5580     2.8480     0.4180 ca         1 JYW       0.188900
      5 C7           2.0960     0.9320    -0.1780 c3         1 JYW      -0.098400
      6 C1          -1.2180     0.9960     0.3990 ca         1 JYW       0.133500
      7 C8           3.5040     1.3450     0.3050 c3         1 JYW      -0.079400
      8 C9           4.4400     1.7580    -0.8480 c3         1 JYW       0.165600
      9 N1          -0.1770     0.1190     0.5050 na         1 JYW      -0.264300
     10 N2          -1.3370     2.3120     0.6610 nb         1 JYW      -0.221000
     11 N3          -1.9080    -1.0970    -0.2940 nd         1 JYW      -0.514100
     12 N4          -3.6500     2.1980    -0.0540 nb         1 JYW      -0.303000
     13 N5          -4.5900     0.2370    -0.7810 nv         1 JYW      -1.057900
     14 O1           5.7200     2.1250    -0.3240 oh         1 JYW      -0.661000
     15 Br1          0.4810    -2.6740     0.0240 br         1 JYW       0.016700
     16 H1          -2.6730     3.9110     0.6240 h5         1 JYW       0.048100
     17 H2           1.6080    -0.3190     1.5280 h1         1 JYW       0.074700
     18 H3           1.0580     1.3550     1.6800 h1         1 JYW       0.074700
     19 H4           2.1870     0.0970    -0.8850 hc         1 JYW       0.055700
     20 H5           1.6420     1.7670    -0.7250 hc         1 JYW       0.055700
     21 H6           3.4140     2.1800     1.0110 hc         1 JYW       0.055700
     22 H7           3.9580     0.5090     0.8530 hc         1 JYW       0.055700
     23 H8           4.5420     0.9200    -1.5510 h1         1 JYW       0.017700
     24 H9           3.9950     2.6030    -1.3910 h1         1 JYW       0.017700
     25 H10         -5.3360     0.7950    -1.1860 hn         1 JYW       0.507000
     26 H11         -4.4410    -0.6860    -1.1820 hn         1 JYW       0.507000
     27 H12          6.2790     2.3800    -1.0910 ho         1 JYW       0.445000
     28 C6           1.1610     0.5180     0.9770 c3         1 JYW       0.082600
@<TRIPOS>BOND
     1     1     9 1   
     2     1    11 2   
     3     1    15 1   
     4     2     3 ar  
     5     2     6 ar  
     6     2    11 1   
     7     3    12 ar  
     8     3    13 1   
     9     4    10 ar  
    10     4    12 ar  
    11     4    16 1   
    12     5     7 1   
    13     5    19 1   
    14     5    20 1   
    15     5    28 1   
    16     6     9 1   
    17     6    10 ar  
    18     7     8 1   
    19     7    21 1   
    20     7    22 1   
    21     8    14 1   
    22     8    23 1   
    23     8    24 1   
    24     9    28 1   
    25    13    25 1   
    26    13    26 1   
    27    14    27 1   
    28    17    28 1   
    29    18    28 1   
@<TRIPOS>SUBSTRUCTURE
     1 JYW         1 TEMP              0 ****  ****    0 ROOT
