@<TRIPOS>MOLECULE
JYX
   22    23     1     0     0
SMALL
abcg2


@<TRIPOS>ATOM
      1 C1          22.5880   -41.2830    -9.0620 c3         1 JYX      -0.115100
      2 C2          21.8330   -41.6020   -10.3420 c3         1 JYX       0.082600
      3 N1          20.9900   -42.7750   -10.2180 na         1 JYX      -0.320300
      4 C3          19.7030   -42.8440    -9.7590 cc         1 JYX       0.645700
      5 N2          19.0060   -41.7330    -9.4300 nv         1 JYX      -1.010200
      6 N3          19.2120   -44.0620    -9.7390 nd         1 JYX      -0.640100
      7 C4          20.2300   -44.8530   -10.2020 ca         1 JYX       0.070400
      8 C5          20.3350   -46.2170   -10.4120 ca         1 JYX      -0.038000
      9 C6          21.5570   -46.6860   -10.8940 ca         1 JYX      -0.178000
     10 C7          22.6000   -45.8020   -11.1460 ca         1 JYX       0.332900
     11 N4          22.5200   -44.4820   -10.9510 nb         1 JYX      -0.668000
     12 C8          21.3610   -44.0690   -10.4980 ca         1 JYX       0.338500
     13 H1          23.2140   -40.4030    -9.2100 hc         1 JYX       0.046033
     14 H2          21.9080   -41.0750    -8.2360 hc         1 JYX       0.046033
     15 H3          23.2340   -42.1120    -8.7740 hc         1 JYX       0.046033
     16 H4          22.5300   -41.7940   -11.1570 h1         1 JYX       0.066700
     17 H5          21.2130   -40.7610   -10.6550 h1         1 JYX       0.066700
     18 H6          18.1400   -41.9060    -8.9450 hn         1 JYX       0.478500
     19 H7          19.5060   -40.9330    -9.0790 hn         1 JYX       0.478500
     20 H8          19.5120   -46.8910   -10.2110 ha         1 JYX       0.131000
     21 H9          21.7030   -47.7420   -11.0760 ha         1 JYX       0.122000
     22 H10         23.5460   -46.1730   -11.5210 h4         1 JYX       0.018100
@<TRIPOS>BOND
     1     1     2 1   
     2     1    13 1   
     3     1    14 1   
     4     1    15 1   
     5     2     3 1   
     6     2    16 1   
     7     2    17 1   
     8     3     4 1   
     9     3    12 1   
    10     4     5 1   
    11     4     6 2   
    12     5    18 1   
    13     5    19 1   
    14     6     7 1   
    15     7     8 ar  
    16     7    12 ar  
    17     8     9 ar  
    18     8    20 1   
    19     9    10 ar  
    20     9    21 1   
    21    10    11 ar  
    22    10    22 1   
    23    11    12 ar  
@<TRIPOS>SUBSTRUCTURE
     1 JYX         1 TEMP              0 ****  ****    0 ROOT
