@<TRIPOS>MOLECULE
JYX
   22    23     1     0     0
SMALL
No Charge or Current Charge


@<TRIPOS>ATOM
      1 C1          22.6310   -41.2470    -9.0670 c3         1 JYX      -0.115100
      2 C2          21.8460   -41.5790   -10.3490 c3         1 JYX       0.082600
      3 N1          20.9760   -42.7590   -10.1960 na         1 JYX      -0.320300
      4 C3          19.6610   -42.8430    -9.7770 cc         1 JYX       0.645700
      5 N2          18.9420   -41.7870    -9.3950 nv         1 JYX      -1.010200
      6 N3          19.1700   -44.0740    -9.7740 nd         1 JYX      -0.640100
      7 C4          20.2650   -44.8120   -10.2290 ca         1 JYX       0.070400
      8 C5          20.3240   -46.1980   -10.4280 ca         1 JYX      -0.038000
      9 C6          21.5450   -46.7230   -10.8960 ca         1 JYX      -0.178000
     10 C7          22.6290   -45.8500   -11.1390 ca         1 JYX       0.332900
     11 N4          22.5580   -44.5090   -10.9420 nb         1 JYX      -0.668000
     12 C8          21.3780   -44.0270   -10.4930 ca         1 JYX       0.338500
     13 H1          23.2620   -40.3650    -9.2250 hc         1 JYX       0.046033
     14 H2          21.9480   -41.0380    -8.2350 hc         1 JYX       0.046033
     15 H3          23.2780   -42.0870    -8.7840 hc         1 JYX       0.046033
     16 H4          22.5530   -41.7590   -11.1690 h1         1 JYX       0.066700
     17 H5          21.2310   -40.7150   -10.6350 h1         1 JYX       0.066700
     18 H6          18.0910   -42.0000    -8.8890 hn         1 JYX       0.478500
     19 H7          19.4490   -40.9650    -9.0930 hn         1 JYX       0.478500
     20 H8          19.4660   -46.8360   -10.2290 ha         1 JYX       0.131000
     21 H9          21.6580   -47.7890   -11.0710 ha         1 JYX       0.122000
     22 H10         23.5810   -46.2360   -11.5010 h4         1 JYX       0.018100
@<TRIPOS>BOND
     1     1     2 1   
     2     1    13 1   
     3     1    14 1   
     4     1    15 1   
     5     2     3 1   
     6     2    16 1   
     7     2    17 1   
     8     3     4 1   
     9     3    12 1   
    10     4     5 1   
    11     4     6 2   
    12     5    18 1   
    13     5    19 1   
    14     6     7 1   
    15     7     8 ar  
    16     7    12 ar  
    17     8     9 ar  
    18     8    20 1   
    19     9    10 ar  
    20     9    21 1   
    21    10    11 ar  
    22    10    22 1   
    23    11    12 ar  
@<TRIPOS>SUBSTRUCTURE
     1 JYX         1 TEMP              0 ****  ****    0 ROOT
