@<TRIPOS>MOLECULE
JYY
   69    73     1     0     0
SMALL
abcg2


@<TRIPOS>ATOM
      1 C12         -4.5290     1.1860    -0.9460 c6         1 JYY      -0.051700
      2 C13         -4.1810     1.2100    -2.4330 c6         1 JYY      -0.096900
      3 C14         -4.3330    -0.1710    -3.0560 c6         1 JYY       0.096500
      4 C15          3.3560    -1.3070     0.9640 cc         1 JYY       0.244000
      5 C17          4.1910     0.7270     0.8580 cd         1 JYY       0.357900
      6 C18          4.2660     2.1570     0.4300 c          1 JYY       0.531600
      7 C19          5.7140     4.1150     0.2050 c3         1 JYY       0.100000
      8 C20          6.8940     4.6600     0.9770 c3         1 JYY       0.143600
      9 C21         -4.3210     2.5670    -0.2860 c3         1 JYY       0.051700
     10 C22         -4.6620     2.5760     1.1900 ca         1 JYY      -0.089300
     11 C28         -5.1070     3.5880    -0.9760 c1         1 JYY       0.303900
     12 C29         -0.1460    -6.5750     0.1820 c3         1 JYY       0.143900
     13 N32         -3.5420    -1.1490    -2.3260 n          1 JYY      -0.400800
     14 N35         -5.7310     4.3940    -1.5110 n1         1 JYY      -0.459000
     15 C01          2.3750    -2.3270     0.5970 ca         1 JYY       0.277000
     16 C02          1.2820    -2.0520    -0.2340 ca         1 JYY      -0.067200
     17 C03          0.3440    -3.0360    -0.5830 ca         1 JYY      -0.060800
     18 C04          0.5420    -4.3240    -0.0560 ca         1 JYY       0.162100
     19 C05          1.6520    -4.5070     0.7650 ca         1 JYY       0.207900
     20 C06         -0.2160    -1.0690    -1.5330 cc         1 JYY      -0.094100
     21 C07         -0.6270    -2.3880    -1.4290 cd         1 JYY      -0.237400
     22 C08         -1.8220    -2.8810    -2.0780 c          1 JYY       0.543300
     23 C09         -2.5830    -1.8600    -2.9280 c          1 JYY       0.510100
     24 C10         -3.8580    -1.2300    -0.9100 c6         1 JYY       0.096500
     25 C11         -3.6920     0.1240    -0.2370 c6         1 JYY      -0.096900
     26 C16          4.4130    -1.4790     1.8150 cd         1 JYY      -0.222000
     27 C23         -3.6590     2.7470     2.1350 ca         1 JYY      -0.097000
     28 C24         -3.9600     2.7190     3.4910 ca         1 JYY      -0.108000
     29 C25         -5.2680     2.5230     3.9100 ca         1 JYY      -0.102000
     30 C26         -6.2750     2.3550     2.9670 ca         1 JYY      -0.108000
     31 C27         -5.9730     2.3810     1.6130 ca         1 JYY      -0.097000
     32 N30          2.5250    -3.5460     1.0710 nb         1 JYY      -0.628000
     33 N31          0.9050    -0.8790    -0.8320 na         1 JYY      -0.170700
     34 N33          3.2490    -0.0550     0.4410 nc         1 JYY      -0.630000
     35 N34          5.4640     2.7360     0.5680 ns         1 JYY      -0.496900
     36 O36         -2.2320    -4.0230    -2.0680 o          1 JYY      -0.486100
     37 O37         -2.2860    -1.7890    -4.1120 o          1 JYY      -0.586100
     38 O38          8.0270     3.8760     0.6730 oh         1 JYY      -0.670000
     39 O39          3.2680     2.7130     0.0050 o          1 JYY      -0.572100
     40 S41          5.2860    -0.0250     1.9540 ss         1 JYY       0.018600
     41 H1          -5.5870     0.9160    -0.8430 hc         1 JYY       0.060700
     42 H2          -4.8280     1.9030    -2.9750 hc         1 JYY       0.055200
     43 H3          -3.1520     1.5590    -2.5680 hc         1 JYY       0.055200
     44 H4          -5.3820    -0.4810    -3.0290 h1         1 JYY       0.061700
     45 H5          -4.0210    -0.1580    -4.0970 h1         1 JYY       0.061700
     46 H7           4.8350     4.7140     0.4400 h1         1 JYY       0.064700
     47 H8           5.8910     4.2050    -0.8710 h1         1 JYY       0.064700
     48 H9           7.0330     5.7100     0.6910 h1         1 JYY       0.033700
     49 H10          6.6660     4.6400     2.0490 h1         1 JYY       0.033700
     50 H11         -3.2720     2.8540    -0.4100 hc         1 JYY       0.079700
     51 H12         -0.9630    -7.1850    -0.1970 h1         1 JYY       0.046033
     52 H13          0.8020    -7.0190    -0.1320 h1         1 JYY       0.046033
     53 H14         -0.1890    -6.5640     1.2730 h1         1 JYY       0.046033
     54 H15          1.8570    -5.4750     1.2040 h4         1 JYY       0.024100
     55 H16         -0.6610    -0.2490    -2.0760 h4         1 JYY       0.229000
     56 H17         -4.8910    -1.5730    -0.8020 h1         1 JYY       0.061700
     57 H18         -3.2320    -1.9680    -0.4130 h1         1 JYY       0.061700
     58 H19         -2.6350     0.4130    -0.2480 hc         1 JYY       0.055200
     59 H20         -3.9880     0.0240     0.8080 hc         1 JYY       0.055200
     60 H21          4.6970    -2.3650     2.3590 h4         1 JYY       0.183000
     61 H23         -2.6360     2.9020     1.8140 ha         1 JYY       0.116500
     62 H24         -3.1700     2.8520     4.2190 ha         1 JYY       0.116500
     63 H25         -5.5030     2.5030     4.9660 ha         1 JYY       0.116000
     64 H26         -7.2980     2.2030     3.2850 ha         1 JYY       0.116500
     65 H27         -6.7680     2.2520     0.8870 ha         1 JYY       0.116500
     66 H28          1.4230    -0.0150    -0.7390 hn         1 JYY       0.397000
     67 H29          6.2800     2.1670     0.7390 hn         1 JYY       0.331500
     68 H30          8.7250     4.0930     1.2970 ho         1 JYY       0.451000
     69 O40         -0.3320    -5.2820    -0.3650 os         1 JYY      -0.299100
@<TRIPOS>BOND
     1     1     2 1   
     2     1     9 1   
     3     1    25 1   
     4     1    41 1   
     5     2     3 1   
     6     2    42 1   
     7     2    43 1   
     8     3    13 1   
     9     3    44 1   
    10     3    45 1   
    11     4    15 1   
    12     4    26 2   
    13     4    34 1   
    14     5     6 1   
    15     5    34 2   
    16     5    40 1   
    17     6    35 1   
    18     6    39 2   
    19     7     8 1   
    20     7    35 1   
    21     7    46 1   
    22     7    47 1   
    23     8    38 1   
    24     8    48 1   
    25     8    49 1   
    26     9    10 1   
    27     9    11 1   
    28     9    50 1   
    29    10    27 ar  
    30    10    31 ar  
    31    11    14 3   
    32    12    51 1   
    33    12    52 1   
    34    12    53 1   
    35    12    69 1   
    36    13    23 1   
    37    13    24 1   
    38    15    16 ar  
    39    15    32 ar  
    40    16    17 ar  
    41    16    33 1   
    42    17    18 ar  
    43    17    21 1   
    44    18    19 ar  
    45    18    69 1   
    46    19    32 ar  
    47    19    54 1   
    48    20    21 2   
    49    20    33 1   
    50    20    55 1   
    51    21    22 1   
    52    22    23 1   
    53    22    36 2   
    54    23    37 2   
    55    24    25 1   
    56    24    56 1   
    57    24    57 1   
    58    25    58 1   
    59    25    59 1   
    60    26    40 1   
    61    26    60 1   
    62    27    28 ar  
    63    27    61 1   
    64    28    29 ar  
    65    28    62 1   
    66    29    30 ar  
    67    29    63 1   
    68    30    31 ar  
    69    30    64 1   
    70    31    65 1   
    71    33    66 1   
    72    35    67 1   
    73    38    68 1   
@<TRIPOS>SUBSTRUCTURE
     1 JYY         1 TEMP              0 ****  ****    0 ROOT
