@<TRIPOS>MOLECULE
JYY
   69    73     1     0     0
SMALL
No Charge or Current Charge


@<TRIPOS>ATOM
      1 C12         -5.0460     1.2810    -0.9380 c6         1 JYY      -0.051700
      2 C13         -4.6230     1.4100    -2.4240 c6         1 JYY      -0.096900
      3 C14         -4.2480     0.0450    -3.0430 c6         1 JYY       0.096500
      4 C15          3.8050    -1.3600     0.5820 cc         1 JYY       0.244000
      5 C17          4.9280     0.5560     0.3580 cd         1 JYY       0.357900
      6 C18          5.2360     1.9640    -0.1060 c          1 JYY       0.531600
      7 C19          6.9570     3.8160     0.0610 c3         1 JYY       0.100000
      8 C20          7.8490     4.3620     1.2000 c3         1 JYY       0.143600
      9 C21         -5.4700     2.6570    -0.3040 c3         1 JYY       0.051700
     10 C22         -5.7570     2.5750     1.2010 ca         1 JYY      -0.089300
     11 C28         -6.6350     3.2660    -0.9720 c1         1 JYY       0.303900
     12 C29         -0.2880    -6.4800     0.5550 c3         1 JYY       0.143900
     13 N32         -3.2840    -0.7670    -2.2430 n          1 JYY      -0.400800
     14 N35         -7.5430     3.7450    -1.5250 n1         1 JYY      -0.459000
     15 C01          2.7090    -2.3560     0.4000 ca         1 JYY       0.277000
     16 C02          1.5680    -2.0730    -0.3920 ca         1 JYY      -0.067200
     17 C03          0.5540    -2.9860    -0.5630 ca         1 JYY      -0.060800
     18 C04          0.6390    -4.2470     0.0650 ca         1 JYY       0.162100
     19 C05          1.8040    -4.4810     0.8480 ca         1 JYY       0.207900
     20 C06          0.0320    -1.0390    -1.7550 cc         1 JYY      -0.094100
     21 C07         -0.4190    -2.3180    -1.4320 cd         1 JYY      -0.237400
     22 C08         -1.7320    -2.8360    -1.9470 c          1 JYY       0.543300
     23 C09         -2.5830    -1.8380    -2.8610 c          1 JYY       0.510100
     24 C10         -3.4690    -0.7400    -0.7600 c6         1 JYY       0.096500
     25 C11         -3.8600     0.6370    -0.1780 c6         1 JYY      -0.096900
     26 C16          4.8920    -1.6810     1.3600 cd         1 JYY      -0.222000
     27 C23         -5.0510     3.4010     2.1010 ca         1 JYY      -0.097000
     28 C24         -5.3020     3.3280     3.4830 ca         1 JYY      -0.108000
     29 C25         -6.2610     2.4310     3.9780 ca         1 JYY      -0.102000
     30 C26         -6.9710     1.6050     3.0910 ca         1 JYY      -0.108000
     31 C27         -6.7210     1.6760     1.7090 ca         1 JYY      -0.097000
     32 N30          2.8060    -3.5730     1.0140 nb         1 JYY      -0.628000
     33 N31          1.2670    -0.9160    -1.0950 na         1 JYY      -0.170700
     34 N33          3.8150    -0.1040     0.0130 nc         1 JYY      -0.630000
     35 N34          6.4390     2.4740     0.3590 ns         1 JYY      -0.496900
     36 O36         -2.1710    -3.9550    -1.6990 o          1 JYY      -0.486100
     37 O37         -2.6220    -1.9890    -4.0820 o          1 JYY      -0.586100
     38 O38          8.8580     3.4020     1.5590 oh         1 JYY      -0.670000
     39 O39          4.5070     2.6330    -0.8350 o          1 JYY      -0.572100
     40 S41          6.0280    -0.3480     1.4110 ss         1 JYY       0.018600
     41 H1          -5.9140     0.6080    -0.8740 hc         1 JYY       0.060700
     42 H2          -5.4280     1.8540    -3.0240 hc         1 JYY       0.055200
     43 H3          -3.7640     2.0900    -2.5080 hc         1 JYY       0.055200
     44 H4          -5.1650    -0.5470    -3.1760 h1         1 JYY       0.061700
     45 H5          -3.8360     0.2250    -4.0470 h1         1 JYY       0.061700
     46 H7           6.1220     4.5110    -0.0990 h1         1 JYY       0.064700
     47 H8           7.5420     3.7700    -0.8670 h1         1 JYY       0.064700
     48 H9           8.3100     5.3050     0.8740 h1         1 JYY       0.033700
     49 H10          7.2150     4.5840     2.0690 h1         1 JYY       0.033700
     50 H11         -4.6410     3.3580    -0.4610 hc         1 JYY       0.079700
     51 H12         -1.1790    -7.0710     0.3110 h1         1 JYY       0.046033
     52 H13          0.5930    -7.0360     0.2120 h1         1 JYY       0.046033
     53 H14         -0.2380    -6.3760     1.6460 h1         1 JYY       0.046033
     54 H15          1.9520    -5.4260     1.3680 h4         1 JYY       0.024100
     55 H16         -0.3920    -0.2420    -2.3630 h4         1 JYY       0.229000
     56 H17         -4.2520    -1.4670    -0.5000 h1         1 JYY       0.061700
     57 H18         -2.5490    -1.0660    -0.2550 h1         1 JYY       0.061700
     58 H19         -2.9880     1.3050    -0.2170 hc         1 JYY       0.055200
     59 H20         -4.1000     0.5090     0.8860 hc         1 JYY       0.055200
     60 H21          5.0900    -2.6000     1.8970 h4         1 JYY       0.183000
     61 H23         -4.3030     4.1010     1.7340 ha         1 JYY       0.116500
     62 H24         -4.7520     3.9690     4.1690 ha         1 JYY       0.116500
     63 H25         -6.4550     2.3750     5.0470 ha         1 JYY       0.116000
     64 H26         -7.7150     0.9100     3.4730 ha         1 JYY       0.116500
     65 H27         -7.2820     1.0320     1.0360 ha         1 JYY       0.116500
     66 H28          1.8750    -0.0990    -1.1160 hn         1 JYY       0.397000
     67 H29          7.0080     1.8820     0.9550 hn         1 JYY       0.331500
     68 H30          9.4130     3.8140     2.2590 ho         1 JYY       0.451000
     69 O40         -0.3590    -5.1910    -0.0790 os         1 JYY      -0.299100
@<TRIPOS>BOND
     1     1     2 1   
     2     1     9 1   
     3     1    25 1   
     4     1    41 1   
     5     2     3 1   
     6     2    42 1   
     7     2    43 1   
     8     3    13 1   
     9     3    44 1   
    10     3    45 1   
    11     4    15 1   
    12     4    26 2   
    13     4    34 1   
    14     5     6 1   
    15     5    34 2   
    16     5    40 1   
    17     6    35 1   
    18     6    39 2   
    19     7     8 1   
    20     7    35 1   
    21     7    46 1   
    22     7    47 1   
    23     8    38 1   
    24     8    48 1   
    25     8    49 1   
    26     9    10 1   
    27     9    11 1   
    28     9    50 1   
    29    10    27 ar  
    30    10    31 ar  
    31    11    14 3   
    32    12    51 1   
    33    12    52 1   
    34    12    53 1   
    35    12    69 1   
    36    13    23 1   
    37    13    24 1   
    38    15    16 ar  
    39    15    32 ar  
    40    16    17 ar  
    41    16    33 1   
    42    17    18 ar  
    43    17    21 1   
    44    18    19 ar  
    45    18    69 1   
    46    19    32 ar  
    47    19    54 1   
    48    20    21 2   
    49    20    33 1   
    50    20    55 1   
    51    21    22 1   
    52    22    23 1   
    53    22    36 2   
    54    23    37 2   
    55    24    25 1   
    56    24    56 1   
    57    24    57 1   
    58    25    58 1   
    59    25    59 1   
    60    26    40 1   
    61    26    60 1   
    62    27    28 ar  
    63    27    61 1   
    64    28    29 ar  
    65    28    62 1   
    66    29    30 ar  
    67    29    63 1   
    68    30    31 ar  
    69    30    64 1   
    70    31    65 1   
    71    33    66 1   
    72    35    67 1   
    73    38    68 1   
@<TRIPOS>SUBSTRUCTURE
     1 JYY         1 TEMP              0 ****  ****    0 ROOT
