@<TRIPOS>MOLECULE
JYZ
   37    38     1     0     0
SMALL
No Charge or Current Charge


@<TRIPOS>ATOM
      1 C01          5.5920     2.6540     0.8120 c3         1 JYZ       0.155900
      2 C03          4.7900     0.4520     0.0140 ca         1 JYZ       0.033100
      3 C04          3.4520     0.8940    -0.0950 ca         1 JYZ      -0.119000
      4 C05          2.4420     0.0110    -0.5280 ca         1 JYZ      -0.109800
      5 C06          1.0390     0.5100    -0.6450 ce         1 JYZ      -0.006200
      6 C07         -0.1340    -0.0730    -0.2390 cf         1 JYZ      -0.122900
      7 C08         -0.1420    -1.3400     0.4250 ch         1 JYZ       0.288700
      8 C10         -1.4510     0.6220    -0.4550 c          1 JYZ       0.629300
      9 C13         -3.9770     0.2790    -0.0160 ca         1 JYZ      -0.056000
     10 C14         -4.4940     1.4760    -0.5650 ca         1 JYZ      -0.088000
     11 C15         -5.8780     1.7260    -0.5480 ca         1 JYZ      -0.125000
     12 C16         -6.7600     0.7900     0.0160 ca         1 JYZ      -0.089000
     13 C17         -6.2570    -0.4000     0.5640 ca         1 JYZ      -0.182000
     14 C18         -4.8760    -0.6550     0.5490 ca         1 JYZ       0.097100
     15 C20          2.7810    -1.3140    -0.8750 ca         1 JYZ      -0.052000
     16 C21          4.1100    -1.7570    -0.7690 ca         1 JYZ      -0.142000
     17 C22          5.1080    -0.8790    -0.3240 ca         1 JYZ       0.157100
     18 N09         -0.1930    -2.3740     0.9620 n1         1 JYZ      -0.460000
     19 N12         -2.5870    -0.0430     0.0020 ns         1 JYZ      -0.132000
     20 O02          5.8150     1.2800     0.4430 os         1 JYZ      -0.367100
     21 O11         -1.5010     1.7160    -1.0070 o          1 JYZ      -0.596100
     22 O19         -4.4070    -1.8200     1.0880 oh         1 JYZ      -0.547100
     23 O23          6.3980    -1.3110    -0.2220 oh         1 JYZ      -0.523100
     24 H1           5.1890     3.2250    -0.0350 h1         1 JYZ       0.045033
     25 H2           4.8880     2.7240     1.6510 h1         1 JYZ       0.045033
     26 H3           6.5340     3.1240     1.1190 h1         1 JYZ       0.045033
     27 H4           3.1790     1.9150     0.1600 ha         1 JYZ       0.122000
     28 H5           0.9850     1.4990    -1.1040 ha         1 JYZ       0.203000
     29 H6          -3.8470     2.2250    -1.0100 ha         1 JYZ       0.142000
     30 H7          -6.2670     2.6490    -0.9720 ha         1 JYZ       0.119000
     31 H8          -7.8300     0.9880     0.0270 ha         1 JYZ       0.115000
     32 H9          -6.9470    -1.1200     0.9980 ha         1 JYZ       0.114000
     33 H10          2.0200    -2.0010    -1.2400 ha         1 JYZ       0.131000
     34 H11          4.3660    -2.7790    -1.0360 ha         1 JYZ       0.139000
     35 H12         -2.3980    -0.9380     0.4370 hn         1 JYZ       0.175000
     36 H13         -5.1700    -2.3370     1.4270 ho         1 JYZ       0.472000
     37 H14          6.9200    -0.5430     0.1010 ho         1 JYZ       0.489000
@<TRIPOS>BOND
     1     1    20 1   
     2     1    24 1   
     3     1    25 1   
     4     1    26 1   
     5     2     3 ar  
     6     2    17 ar  
     7     2    20 1   
     8     3     4 ar  
     9     3    27 1   
    10     4     5 1   
    11     4    15 ar  
    12     5     6 2   
    13     5    28 1   
    14     6     7 1   
    15     6     8 1   
    16     7    18 3   
    17     8    19 1   
    18     8    21 2   
    19     9    10 ar  
    20     9    14 ar  
    21     9    19 1   
    22    10    11 ar  
    23    10    29 1   
    24    11    12 ar  
    25    11    30 1   
    26    12    13 ar  
    27    12    31 1   
    28    13    14 ar  
    29    13    32 1   
    30    14    22 1   
    31    15    16 ar  
    32    15    33 1   
    33    16    17 ar  
    34    16    34 1   
    35    17    23 1   
    36    19    35 1   
    37    22    36 1   
    38    23    37 1   
@<TRIPOS>SUBSTRUCTURE
     1 JYZ         1 TEMP              0 ****  ****    0 ROOT
