@<TRIPOS>MOLECULE
JYZ
   37    38     1     0     0
SMALL
abcg2


@<TRIPOS>ATOM
      1 C01          5.4060     2.8140    -0.4390 c3         1 JYZ       0.155900
      2 C03          4.6980     0.5710    -0.1140 ca         1 JYZ       0.033100
      3 C04          3.3560     0.8800    -0.1460 ca         1 JYZ      -0.119000
      4 C05          2.3710    -0.1190    -0.0030 ca         1 JYZ      -0.109800
      5 C06          1.0040     0.3310    -0.0510 ce         1 JYZ      -0.006200
      6 C07         -0.1750    -0.3140     0.1270 cf         1 JYZ      -0.122900
      7 C08         -0.2780    -1.6920     0.4440 ch         1 JYZ       0.288700
      8 C10         -1.4410     0.4760    -0.0110 c          1 JYZ       0.629300
      9 C13         -3.8940     0.2570     0.1160 ca         1 JYZ      -0.056000
     10 C14         -4.2700     1.5770     0.3420 ca         1 JYZ      -0.088000
     11 C15         -5.6020     1.9570     0.2360 ca         1 JYZ      -0.125000
     12 C16         -6.5710     1.0190    -0.0810 ca         1 JYZ      -0.089000
     13 C17         -6.2110    -0.3040    -0.2950 ca         1 JYZ      -0.182000
     14 C18         -4.8810    -0.6890    -0.2030 ca         1 JYZ       0.097100
     15 C20          2.7870    -1.4430     0.1620 ca         1 JYZ      -0.052000
     16 C21          4.1320    -1.7590     0.1890 ca         1 JYZ      -0.142000
     17 C22          5.0970    -0.7690     0.0560 ca         1 JYZ       0.157100
     18 N09         -0.4240    -2.8070     0.7070 n1         1 JYZ      -0.460000
     19 N12         -2.5780    -0.2170     0.2240 ns         1 JYZ      -0.132000
     20 O02          5.7130     1.4480    -0.2320 os         1 JYZ      -0.367100
     21 O11         -1.4130     1.6560    -0.3110 o          1 JYZ      -0.596100
     22 O19         -4.4650    -1.9560    -0.4020 oh         1 JYZ      -0.547100
     23 O23          6.3860    -1.1120     0.0890 oh         1 JYZ      -0.523100
     24 H1           4.8470     2.9640    -1.3660 h1         1 JYZ       0.045033
     25 H2           4.8340     3.2280     0.3940 h1         1 JYZ       0.045033
     26 H3           6.3560     3.3370    -0.5100 h1         1 JYZ       0.045033
     27 H4           3.0360     1.9050    -0.2800 ha         1 JYZ       0.122000
     28 H5           0.8900     1.3890    -0.2640 ha         1 JYZ       0.203000
     29 H6          -3.5280     2.3150     0.6080 ha         1 JYZ       0.142000
     30 H7          -5.8740     2.9890     0.4130 ha         1 JYZ       0.119000
     31 H8          -7.6110     1.3080    -0.1600 ha         1 JYZ       0.115000
     32 H9          -6.9660    -1.0420    -0.5390 ha         1 JYZ       0.114000
     33 H10          2.0780    -2.2500     0.2590 ha         1 JYZ       0.131000
     34 H11          4.4470    -2.7870     0.3130 ha         1 JYZ       0.139000
     35 H12         -2.5010    -1.2070     0.4050 hn         1 JYZ       0.175000
     36 H13         -5.2150    -2.5450    -0.5440 ho         1 JYZ       0.472000
     37 H14          6.9510    -0.3360    -0.0220 ho         1 JYZ       0.489000
@<TRIPOS>BOND
     1     1    20 1   
     2     1    24 1   
     3     1    25 1   
     4     1    26 1   
     5     2     3 ar  
     6     2    17 ar  
     7     2    20 1   
     8     3     4 ar  
     9     3    27 1   
    10     4     5 1   
    11     4    15 ar  
    12     5     6 2   
    13     5    28 1   
    14     6     7 1   
    15     6     8 1   
    16     7    18 3   
    17     8    19 1   
    18     8    21 2   
    19     9    10 ar  
    20     9    14 ar  
    21     9    19 1   
    22    10    11 ar  
    23    10    29 1   
    24    11    12 ar  
    25    11    30 1   
    26    12    13 ar  
    27    12    31 1   
    28    13    14 ar  
    29    13    32 1   
    30    14    22 1   
    31    15    16 ar  
    32    15    33 1   
    33    16    17 ar  
    34    16    34 1   
    35    17    23 1   
    36    19    35 1   
    37    22    36 1   
    38    23    37 1   
@<TRIPOS>SUBSTRUCTURE
     1 JYZ         1 TEMP              0 ****  ****    0 ROOT
