@<TRIPOS>MOLECULE
JZ0
   16    16     1     0     0
SMALL
No Charge or Current Charge


@<TRIPOS>ATOM
      1 C9          -0.6490    -1.4600     0.0230 ca         1 JZ0      -0.092000
      2 C10         -1.8610    -0.7480     0.0440 ca         1 JZ0      -0.126000
      3 C11         -1.8520     0.6550     0.0860 ca         1 JZ0      -0.088000
      4 C12         -0.6300     1.3480     0.1070 ca         1 JZ0      -0.174000
      5 C13          0.5840     0.6390     0.0850 ca         1 JZ0       0.116100
      6 C14          0.5820    -0.7740     0.0430 ca         1 JZ0      -0.094300
      7 C15          1.8890    -1.5610     0.0190 c3         1 JZ0      -0.034800
      8 OAB          1.7610     1.3320     0.1060 oh         1 JZ0      -0.552100
      9 H9          -0.6700    -2.5480    -0.0100 ha         1 JZ0       0.112000
     10 H10         -2.8070    -1.2850     0.0280 ha         1 JZ0       0.115000
     11 H11         -2.7910     1.2050     0.1030 ha         1 JZ0       0.112000
     12 H12         -0.6330     2.4350     0.1390 ha         1 JZ0       0.115000
     13 H15          2.4900    -1.2980    -0.8600 hc         1 JZ0       0.043367
     14 H15A         2.4900    -1.3510     0.9120 hc         1 JZ0       0.043367
     15 H15B         1.7150    -2.6430    -0.0130 hc         1 JZ0       0.043367
     16 HOAB         1.5570     2.2910     0.1350 ho         1 JZ0       0.459000
@<TRIPOS>BOND
     1     1     2 ar  
     2     1     6 ar  
     3     1     9 1   
     4     2     3 ar  
     5     2    10 1   
     6     3     4 ar  
     7     3    11 1   
     8     4     5 ar  
     9     4    12 1   
    10     5     6 ar  
    11     5     8 1   
    12     6     7 1   
    13     7    13 1   
    14     7    14 1   
    15     7    15 1   
    16     8    16 1   
@<TRIPOS>SUBSTRUCTURE
     1 JZ0         1 TEMP              0 ****  ****    0 ROOT
