@<TRIPOS>MOLECULE
JZ0
   16    16     1     0     0
SMALL
bcc


@<TRIPOS>ATOM
      1 C9          -0.6510    -1.4220     0.0440 ca         1 JZ0      -0.110000
      2 C10         -1.8600    -0.7450     0.1000 ca         1 JZ0      -0.144000
      3 C11         -1.8640     0.6380     0.0750 ca         1 JZ0      -0.106000
      4 C12         -0.6660     1.3360    -0.0040 ca         1 JZ0      -0.192000
      5 C13          0.5450     0.6490    -0.0280 ca         1 JZ0       0.116100
      6 C14          0.5760    -0.7510    -0.0060 ca         1 JZ0      -0.094300
      7 C15          1.8740    -1.4990     0.0100 c3         1 JZ0      -0.034800
      8 OAB          1.7340     1.3150    -0.1030 oh         1 JZ0      -0.513100
      9 H9          -0.6260    -2.5120     0.0350 ha         1 JZ0       0.130000
     10 H10         -2.7820    -1.3100     0.1490 ha         1 JZ0       0.133000
     11 H11         -2.7880     1.1990     0.1220 ha         1 JZ0       0.130000
     12 H12         -0.6880     2.4170    -0.0660 ha         1 JZ0       0.133000
     13 H15          2.5600    -1.2000    -0.7830 hc         1 JZ0       0.043367
     14 H15A         2.3820    -1.3580     0.9680 hc         1 JZ0       0.043367
     15 H15B         1.6940    -2.5690    -0.0880 hc         1 JZ0       0.043367
     16 HOAB         1.7360     2.0490     0.5210 ho         1 JZ0       0.420000
@<TRIPOS>BOND
     1     1     2 ar  
     2     1     6 ar  
     3     1     9 1   
     4     2     3 ar  
     5     2    10 1   
     6     3     4 ar  
     7     3    11 1   
     8     4     5 ar  
     9     4    12 1   
    10     5     6 ar  
    11     5     8 1   
    12     6     7 1   
    13     7    13 1   
    14     7    14 1   
    15     7    15 1   
    16     8    16 1   
@<TRIPOS>SUBSTRUCTURE
     1 JZ0         1 TEMP              0 ****  ****    0 ROOT
