@<TRIPOS>MOLECULE
JZ1
   19    19     1     0     0
SMALL
No Charge or Current Charge


@<TRIPOS>ATOM
      1 C7          -1.8930     1.3020    -0.0320 ca         1 JZ1      -0.148000
      2 C8          -2.4350     0.0280    -0.2660 ca         1 JZ1      -0.075000
      3 C9          -1.5950    -1.0970    -0.2610 ca         1 JZ1      -0.147000
      4 C10         -0.2180    -0.9540    -0.0220 ca         1 JZ1       0.145100
      5 C11         -0.5160     1.4500     0.2080 ca         1 JZ1      -0.069000
      6 C12          0.3350     0.3250     0.2180 ca         1 JZ1      -0.170300
      7 C13          1.8280     0.5290     0.4830 c3         1 JZ1      -0.032100
      8 C14          2.6490     0.6090    -0.8180 c3         1 JZ1      -0.092100
      9 OAB          0.5670    -2.0690    -0.0300 oh         1 JZ1      -0.541100
     10 H7          -2.5400     2.1760    -0.0370 ha         1 JZ1       0.115000
     11 H8          -3.5000    -0.0860    -0.4520 ha         1 JZ1       0.114000
     12 H9          -2.0120    -2.0840    -0.4440 ha         1 JZ1       0.127000
     13 H11         -0.1100     2.4440     0.3860 ha         1 JZ1       0.109000
     14 H13          1.9870     1.4560     1.0490 hc         1 JZ1       0.043700
     15 H13A         2.2280    -0.2710     1.1180 hc         1 JZ1       0.043700
     16 H14          2.5540    -0.3150    -1.4010 hc         1 JZ1       0.037367
     17 H14A         2.3040     1.4440    -1.4390 hc         1 JZ1       0.037367
     18 H14B         3.7110     0.7650    -0.5920 hc         1 JZ1       0.037367
     19 HOAB         1.4920    -1.7860     0.1240 ho         1 JZ1       0.467000
@<TRIPOS>BOND
     1     1     2 ar  
     2     1     5 ar  
     3     1    10 1   
     4     2     3 ar  
     5     2    11 1   
     6     3     4 ar  
     7     3    12 1   
     8     4     6 ar  
     9     4     9 1   
    10     5     6 ar  
    11     5    13 1   
    12     6     7 1   
    13     7     8 1   
    14     7    14 1   
    15     7    15 1   
    16     8    16 1   
    17     8    17 1   
    18     8    18 1   
    19     9    19 1   
@<TRIPOS>SUBSTRUCTURE
     1 JZ1         1 TEMP              0 ****  ****    0 ROOT
