@<TRIPOS>MOLECULE
JZ1
   19    19     1     0     0
SMALL
bcc


@<TRIPOS>ATOM
      1 C7          -1.8930     1.2980     0.0010 ca         1 JZ1      -0.166000
      2 C8          -2.4000     0.0360    -0.2740 ca         1 JZ1      -0.093000
      3 C9          -1.5560    -1.0630    -0.2950 ca         1 JZ1      -0.165000
      4 C10         -0.1950    -0.9080    -0.0450 ca         1 JZ1       0.145100
      5 C11         -0.5360     1.4420     0.2510 ca         1 JZ1      -0.087000
      6 C12          0.3370     0.3570     0.2350 ca         1 JZ1      -0.170300
      7 C13          1.8100     0.5600     0.4700 c3         1 JZ1      -0.032100
      8 C14          2.6290     0.5580    -0.8210 c3         1 JZ1      -0.092100
      9 OAB          0.5640    -2.0260    -0.0920 oh         1 JZ1      -0.502100
     10 H7          -2.5460     2.1610     0.0220 ha         1 JZ1       0.133000
     11 H8          -3.4560    -0.1000    -0.4680 ha         1 JZ1       0.132000
     12 H9          -1.9470    -2.0520    -0.5060 ha         1 JZ1       0.145000
     13 H11         -0.1350     2.4250     0.4700 ha         1 JZ1       0.127000
     14 H13          1.9520     1.5170     0.9750 hc         1 JZ1       0.043700
     15 H13A         2.2080    -0.1880     1.1650 hc         1 JZ1       0.043700
     16 H14          2.5600    -0.3900    -1.3560 hc         1 JZ1       0.037367
     17 H14A         2.2840     1.3410    -1.4970 hc         1 JZ1       0.037367
     18 H14B         3.6830     0.7390    -0.6090 hc         1 JZ1       0.037367
     19 HOAB         1.4720    -1.8410     0.1660 ho         1 JZ1       0.428000
@<TRIPOS>BOND
     1     1     2 ar  
     2     1     5 ar  
     3     1    10 1   
     4     2     3 ar  
     5     2    11 1   
     6     3     4 ar  
     7     3    12 1   
     8     4     6 ar  
     9     4     9 1   
    10     5     6 ar  
    11     5    13 1   
    12     6     7 1   
    13     7     8 1   
    14     7    14 1   
    15     7    15 1   
    16     8    16 1   
    17     8    17 1   
    18     8    18 1   
    19     9    19 1   
@<TRIPOS>SUBSTRUCTURE
     1 JZ1         1 TEMP              0 ****  ****    0 ROOT
