@<TRIPOS>MOLECULE
JZ2
   16    16     1     0     0
SMALL
bcc


@<TRIPOS>ATOM
      1 CL          -2.7520     0.2410     0.0990 cl         1 JZ2      -0.113400
      2 C14         -1.0480    -0.0830     0.0690 ca         1 JZ2       0.065400
      3 C5          -0.1640     0.9780     0.1910 ca         1 JZ2      -0.221000
      4 C6           1.2040     0.7260     0.1690 ca         1 JZ2       0.147100
      5 C11          1.6940    -0.5790     0.0240 ca         1 JZ2      -0.104300
      6 C7           3.1710    -0.8390    -0.0010 c3         1 JZ2      -0.034800
      7 C12          0.7700    -1.6070    -0.0970 ca         1 JZ2      -0.088000
      8 C13         -0.6020    -1.3830    -0.0770 ca         1 JZ2      -0.156000
      9 OAB          2.1100     1.7140     0.2820 oh         1 JZ2      -0.491100
     10 H5          -0.5340     1.9900     0.3050 ha         1 JZ2       0.146000
     11 H7           3.6470    -0.5480     0.9380 hc         1 JZ2       0.045367
     12 H7A          3.3740    -1.8960    -0.1640 hc         1 JZ2       0.045367
     13 H7B          3.6660    -0.2780    -0.7950 hc         1 JZ2       0.045367
     14 H12          1.1280    -2.6220    -0.2130 ha         1 JZ2       0.136000
     15 H13         -1.2980    -2.2040    -0.1740 ha         1 JZ2       0.150000
     16 HOAB         1.6740     2.5700     0.3520 ho         1 JZ2       0.428000
@<TRIPOS>BOND
     1     1     2 1   
     2     2     3 ar  
     3     2     8 ar  
     4     3     4 ar  
     5     3    10 1   
     6     4     5 ar  
     7     4     9 1   
     8     5     6 1   
     9     5     7 ar  
    10     6    11 1   
    11     6    12 1   
    12     6    13 1   
    13     7     8 ar  
    14     7    14 1   
    15     8    15 1   
    16     9    16 1   
@<TRIPOS>SUBSTRUCTURE
     1 JZ2         1 TEMP              0 ****  ****    0 ROOT
