@<TRIPOS>MOLECULE
JZ2
   16    16     1     0     0
SMALL
No Charge or Current Charge


@<TRIPOS>ATOM
      1 Cl          -2.7940     0.2540     0.0980 cl         1 JZ2      -0.205000
      2 C14         -1.0660    -0.0660     0.0680 ca         1 JZ2       0.157000
      3 C5          -0.1570     0.9960     0.1930 ca         1 JZ2      -0.203000
      4 C6           1.2240     0.7430     0.1700 ca         1 JZ2       0.147100
      5 C11          1.7040    -0.5780     0.0210 ca         1 JZ2      -0.104300
      6 C7           3.2010    -0.8700    -0.0070 c3         1 JZ2      -0.034800
      7 C12          0.7820    -1.6370    -0.1050 ca         1 JZ2      -0.070000
      8 C13         -0.6000    -1.3800    -0.0810 ca         1 JZ2      -0.138000
      9 OAB          2.0960     1.7860     0.2930 oh         1 JZ2      -0.530100
     10 H5          -0.5340     2.0080     0.3080 ha         1 JZ2       0.128000
     11 H7           3.6820    -0.5470     0.9250 hc         1 JZ2       0.045367
     12 H7A          3.4070    -1.9400    -0.1290 hc         1 JZ2       0.045367
     13 H7B          3.6890    -0.3440    -0.8360 hc         1 JZ2       0.045367
     14 H12          1.1330    -2.6610    -0.2200 ha         1 JZ2       0.118000
     15 H13         -1.3080    -2.1990    -0.1770 ha         1 JZ2       0.132000
     16 HOAB         1.5800     2.6150     0.3860 ho         1 JZ2       0.467000
@<TRIPOS>BOND
     1     1     2 1   
     2     2     3 ar  
     3     2     8 ar  
     4     3     4 ar  
     5     3    10 1   
     6     4     5 ar  
     7     4     9 1   
     8     5     6 1   
     9     5     7 ar  
    10     6    11 1   
    11     6    12 1   
    12     6    13 1   
    13     7     8 ar  
    14     7    14 1   
    15     8    15 1   
    16     9    16 1   
@<TRIPOS>SUBSTRUCTURE
     1 JZ2         1 TEMP              0 ****  ****    0 ROOT
