@<TRIPOS>MOLECULE
JZ3
   17    17     1     0     0
SMALL
No Charge or Current Charge


@<TRIPOS>ATOM
      1 CAA          2.9470     0.6640    -0.0390 c3         1 JZ3       0.145900
      2 OAG          1.8790    -0.2970     0.0280 os         1 JZ3      -0.322100
      3 CAI          0.5440     0.0750     0.0480 ca         1 JZ3       0.110100
      4 CAF          0.1470     1.4320     0.0040 ca         1 JZ3      -0.167000
      5 CAD         -1.2180     1.7700     0.0260 ca         1 JZ3      -0.110000
      6 CAC         -2.1950     0.7640     0.0920 ca         1 JZ3      -0.106000
      7 CAE         -1.8110    -0.5870     0.1360 ca         1 JZ3      -0.177000
      8 CAH         -0.4480    -0.9360     0.1150 ca         1 JZ3       0.108100
      9 OAB         -0.1010    -2.2600     0.1590 oh         1 JZ3      -0.516100
     10 HAA          2.8750     1.2650    -0.9540 h1         1 JZ3       0.038700
     11 HAAA         2.9220     1.3360     0.8280 h1         1 JZ3       0.038700
     12 HAAB         3.9180     0.1530    -0.0440 h1         1 JZ3       0.038700
     13 HAF          0.8770     2.2340    -0.0470 ha         1 JZ3       0.118000
     14 HAD         -1.5190     2.8150    -0.0080 ha         1 JZ3       0.114000
     15 HAC         -3.2490     1.0310     0.1090 ha         1 JZ3       0.114000
     16 HAE         -2.5770    -1.3580     0.1870 ha         1 JZ3       0.113000
     17 HOAB        -0.9210    -2.7970     0.2020 ho         1 JZ3       0.458000
@<TRIPOS>BOND
     1     1     2 1   
     2     1    10 1   
     3     1    11 1   
     4     1    12 1   
     5     2     3 1   
     6     3     4 ar  
     7     3     8 ar  
     8     4     5 ar  
     9     4    13 1   
    10     5     6 ar  
    11     5    14 1   
    12     6     7 ar  
    13     6    15 1   
    14     7     8 ar  
    15     7    16 1   
    16     8     9 1   
    17     9    17 1   
@<TRIPOS>SUBSTRUCTURE
     1 JZ3         1 TEMP              0 ****  ****    0 ROOT
