@<TRIPOS>MOLECULE
JZ3
   17    17     1     0     0
SMALL
bcc


@<TRIPOS>ATOM
      1 CAA          2.8480     0.6300    -0.0320 c3         1 JZ3       0.122700
      2 OAG          1.8170    -0.3340     0.0170 os         1 JZ3      -0.298900
      3 CAI          0.5400     0.1010     0.0370 ca         1 JZ3       0.110100
      4 CAF          0.1470     1.4310    -0.0050 ca         1 JZ3      -0.185000
      5 CAD         -1.2040     1.7720     0.0240 ca         1 JZ3      -0.128000
      6 CAC         -2.1660     0.7820     0.0950 ca         1 JZ3      -0.124000
      7 CAE         -1.7800    -0.5550     0.1370 ca         1 JZ3      -0.195000
      8 CAH         -0.4410    -0.9050     0.1080 ca         1 JZ3       0.108100
      9 OAB         -0.0030    -2.1810     0.1460 oh         1 JZ3      -0.477100
     10 HAA          2.8030     1.2360    -0.9400 h1         1 JZ3       0.038700
     11 HAAA         2.8300     1.2940     0.8370 h1         1 JZ3       0.038700
     12 HAAB         3.7860     0.0790    -0.0280 h1         1 JZ3       0.038700
     13 HAF          0.8840     2.2210    -0.0590 ha         1 JZ3       0.136000
     14 HAD         -1.4880     2.8150    -0.0090 ha         1 JZ3       0.132000
     15 HAC         -3.2180     1.0350     0.1190 ha         1 JZ3       0.132000
     16 HAE         -2.5330    -1.3340     0.1930 ha         1 JZ3       0.131000
     17 HOAB        -0.7530    -2.7830     0.2030 ho         1 JZ3       0.419000
@<TRIPOS>BOND
     1     1     2 1   
     2     1    10 1   
     3     1    11 1   
     4     1    12 1   
     5     2     3 1   
     6     3     4 ar  
     7     3     8 ar  
     8     4     5 ar  
     9     4    13 1   
    10     5     6 ar  
    11     5    14 1   
    12     6     7 ar  
    13     6    15 1   
    14     7     8 ar  
    15     7    16 1   
    16     8     9 1   
    17     9    17 1   
@<TRIPOS>SUBSTRUCTURE
     1 JZ3         1 TEMP              0 ****  ****    0 ROOT
