@<TRIPOS>MOLECULE
JZ4
   22    22     1     0     0
SMALL
abcg2


@<TRIPOS>ATOM
      1 C4           3.8200    -0.3870     0.2210 c3         1 JZ4      -0.089100
      2 C7          -2.1410    -1.4240     0.0130 ca         1 JZ4      -0.146000
      3 C8          -2.7480    -0.2210     0.3360 ca         1 JZ4      -0.072000
      4 C9          -2.0090     0.9540     0.3350 ca         1 JZ4      -0.206000
      5 C10         -0.6560     0.9300     0.0090 ca         1 JZ4       0.139100
      6 C11         -0.7900    -1.4340    -0.3130 ca         1 JZ4      -0.075000
      7 C12         -0.0230    -0.2740    -0.3230 ca         1 JZ4      -0.107300
      8 C13          1.4430    -0.3220    -0.6550 c3         1 JZ4      -0.019100
      9 C14          2.3430    -0.3020     0.5810 c3         1 JZ4      -0.072400
     10 H4           4.4480    -0.3580     1.1110 hc         1 JZ4       0.030367
     11 H4A          4.0450    -1.3140    -0.3110 hc         1 JZ4       0.030367
     12 H4B          4.1200     0.4420    -0.4220 hc         1 JZ4       0.030367
     13 H7          -2.7090    -2.3440     0.0100 ha         1 JZ4       0.115000
     14 H8          -3.8000    -0.1870     0.5890 ha         1 JZ4       0.111000
     15 H9          -2.4870     1.8950     0.5870 ha         1 JZ4       0.111000
     16 H11         -0.3120    -2.3720    -0.5730 ha         1 JZ4       0.112000
     17 H13          1.6450    -1.2340    -1.2220 hc         1 JZ4       0.046700
     18 H13A         1.7130     0.5090    -1.3120 hc         1 JZ4       0.046700
     19 H14          2.0770    -1.1400     1.2320 hc         1 JZ4       0.042200
     20 H14A         2.1590     0.6060     1.1600 hc         1 JZ4       0.042200
     21 HOAB        -0.4530     2.8200     0.2070 ho         1 JZ4       0.461000
     22 OAB          0.0930     2.0540    -0.0050 oh         1 JZ4      -0.534100
@<TRIPOS>BOND
     1     1     9 1   
     2     1    10 1   
     3     1    11 1   
     4     1    12 1   
     5     2     3 ar  
     6     2     6 ar  
     7     2    13 1   
     8     3     4 ar  
     9     3    14 1   
    10     4     5 ar  
    11     4    15 1   
    12     5     7 ar  
    13     5    22 1   
    14     6     7 ar  
    15     6    16 1   
    16     7     8 1   
    17     8     9 1   
    18     8    17 1   
    19     8    18 1   
    20     9    19 1   
    21     9    20 1   
    22    21    22 1   
@<TRIPOS>SUBSTRUCTURE
     1 JZ4         1 TEMP              0 ****  ****    0 ROOT
