@<TRIPOS>MOLECULE
JZ4
   22    22     1     0     0
SMALL
No Charge or Current Charge


@<TRIPOS>ATOM
      1 C4           3.8670    -0.4340     0.2300 c3         1 JZ4      -0.089100
      2 C7          -2.1220    -1.4270     0.0650 ca         1 JZ4      -0.146000
      3 C8          -2.7660    -0.2130     0.3490 ca         1 JZ4      -0.072000
      4 C9          -2.0410     0.9900     0.3000 ca         1 JZ4      -0.206000
      5 C10         -0.6760     0.9810    -0.0320 ca         1 JZ4       0.139100
      6 C11         -0.7570    -1.4420    -0.2680 ca         1 JZ4      -0.075000
      7 C12         -0.0220    -0.2400    -0.3210 ca         1 JZ4      -0.107300
      8 C13          1.4630    -0.2910    -0.6820 c3         1 JZ4      -0.019100
      9 C14          2.3650    -0.3700     0.5680 c3         1 JZ4      -0.072400
     10 H4           4.4630    -0.4890     1.1480 hc         1 JZ4       0.030367
     11 H4A          4.0910    -1.3190    -0.3780 hc         1 JZ4       0.030367
     12 H4B          4.1780     0.4580    -0.3280 hc         1 JZ4       0.030367
     13 H7          -2.6820    -2.3600     0.1030 ha         1 JZ4       0.115000
     14 H8          -3.8230    -0.2040     0.6060 ha         1 JZ4       0.111000
     15 H9          -2.5480     1.9260     0.5240 ha         1 JZ4       0.111000
     16 H11         -0.2690    -2.3900    -0.4830 ha         1 JZ4       0.112000
     17 H13          1.6640    -1.1600    -1.3210 hc         1 JZ4       0.046700
     18 H13A         1.7450     0.5860    -1.2780 hc         1 JZ4       0.046700
     19 H14          2.0920    -1.2570     1.1540 hc         1 JZ4       0.042200
     20 H14A         2.1790     0.5030     1.2050 hc         1 JZ4       0.042200
     21 HOAB        -0.6230     2.8840     0.1620 ho         1 JZ4       0.461000
     22 OAB          0.0020     2.1650    -0.0670 oh         1 JZ4      -0.534100
@<TRIPOS>BOND
     1     1     9 1   
     2     1    10 1   
     3     1    11 1   
     4     1    12 1   
     5     2     3 ar  
     6     2     6 ar  
     7     2    13 1   
     8     3     4 ar  
     9     3    14 1   
    10     4     5 ar  
    11     4    15 1   
    12     5     7 ar  
    13     5    22 1   
    14     6     7 ar  
    15     6    16 1   
    16     7     8 1   
    17     8     9 1   
    18     8    17 1   
    19     8    18 1   
    20     9    19 1   
    21     9    20 1   
    22    21    22 1   
@<TRIPOS>SUBSTRUCTURE
     1 JZ4         1 TEMP              0 ****  ****    0 ROOT
