@<TRIPOS>MOLECULE
JZ5
   13    13     1     0     0
SMALL
bcc


@<TRIPOS>ATOM
      1 OAB          2.2420     0.8550     0.0110 oh         1 JZ5      -0.386500
      2 CAC         -2.4160    -0.5660     0.0240 cc         1 JZ5      -0.157000
      3 CAD         -2.1630     0.7750     0.0410 cd         1 JZ5      -0.134100
      4 CAE         -1.2280    -1.3320     0.0050 cc         1 JZ5      -0.127000
      5 NAF          2.3710    -0.5010    -0.0060 n2         1 JZ5      -0.432200
      6 SAG         -0.4910     1.1180     0.0350 ss         1 JZ5       0.013200
      7 CAH          1.2500    -1.1040    -0.0060 cf         1 JZ5       0.458800
      8 CAI         -0.0900    -0.5630     0.0090 cd         1 JZ5      -0.168000
      9 HOAB         3.1460     1.1890     0.0100 ho         1 JZ5       0.432000
     10 HAD         -2.8830     1.5790     0.0580 h4         1 JZ5       0.167000
     11 HAE         -1.2020    -2.4130    -0.0100 ha         1 JZ5       0.150000
     12 HAH          1.3230    -2.1860    -0.0200 h4         1 JZ5       0.031800
     13 HAC         -3.4090    -0.9900     0.0240 ha         1 JZ5       0.152000
@<TRIPOS>BOND
     1     1     5 1   
     2     1     9 1   
     3     2     3 2   
     4     2     4 1   
     5     2    13 1   
     6     3     6 1   
     7     3    10 1   
     8     4     8 2   
     9     4    11 1   
    10     5     7 2   
    11     6     8 1   
    12     7     8 1   
    13     7    12 1   
@<TRIPOS>SUBSTRUCTURE
     1 JZ5         1 TEMP              0 ****  ****    0 ROOT
