@<TRIPOS>MOLECULE
JZ5
   13    13     1     0     0
SMALL
No Charge or Current Charge


@<TRIPOS>ATOM
      1 OAB          3.3850    -0.1440    -0.2510 oh         1 JZ5      -0.524000
      2 CAC         -2.5730    -0.6780     0.1010 cc         1 JZ5      -0.139000
      3 CAD         -2.5220     0.6300     0.5070 cd         1 JZ5      -0.261000
      4 CAE         -1.3030    -1.2330    -0.1840 cc         1 JZ5      -0.109000
      5 NAF          2.0640     0.2820    -0.0020 n2         1 JZ5      -0.333700
      6 SAG         -0.8520     1.2280     0.5490 ss         1 JZ5       0.303000
      7 CAH          1.1590    -0.6350    -0.2110 cf         1 JZ5       0.458800
      8 CAI         -0.2630    -0.3560     0.0010 cd         1 JZ5      -0.312900
      9 HOAB         3.9530     0.6410    -0.0540 ho         1 JZ5       0.471000
     10 HAD         -3.3400     1.2830     0.7830 h4         1 JZ5       0.149000
     11 HAE         -1.1840    -2.2620    -0.5160 ha         1 JZ5       0.132000
     12 HAH          1.4160    -1.6450    -0.5500 h4         1 JZ5       0.031800
     13 HAC         -3.4920    -1.2500     0.0020 ha         1 JZ5       0.134000
@<TRIPOS>BOND
     1     1     5 1   
     2     1     9 1   
     3     2     3 2   
     4     2     4 1   
     5     2    13 1   
     6     3     6 1   
     7     3    10 1   
     8     4     8 2   
     9     4    11 1   
    10     5     7 2   
    11     6     8 1   
    12     7     8 1   
    13     7    12 1   
@<TRIPOS>SUBSTRUCTURE
     1 JZ5         1 TEMP              0 ****  ****    0 ROOT
