@<TRIPOS>MOLECULE
JZ6
    9     9     1     0     0
SMALL
No Charge or Current Charge


@<TRIPOS>ATOM
      1 ClAA         1.9480     0.1210    -0.0460 cl         1 JZ6      -0.156000
      2 CAB         -0.5570    -1.0930    -0.0240 cc         1 JZ6      -0.161000
      3 CAC         -0.6410     1.1510    -0.0180 cd         1 JZ6       0.254900
      4 NAD         -1.8580    -0.5860    -0.0100 na         1 JZ6       0.001800
      5 NAE         -1.9180     0.8040    -0.0060 nc         1 JZ6      -0.513800
      6 CAF          0.2160     0.0300    -0.0290 cd         1 JZ6      -0.017000
      7 HAB         -0.3140    -2.1490    -0.0300 h4         1 JZ6       0.166000
      8 HAC         -0.3700     2.1990    -0.0180 h4         1 JZ6       0.049100
      9 HNAD        -2.7120    -1.1470    -0.0040 hn         1 JZ6       0.376000
@<TRIPOS>BOND
     1     1     6 1   
     2     2     4 1   
     3     2     6 2   
     4     2     7 1   
     5     3     5 2   
     6     3     6 1   
     7     3     8 1   
     8     4     5 1   
     9     4     9 1   
@<TRIPOS>SUBSTRUCTURE
     1 JZ6         1 TEMP              0 ****  ****    0 ROOT
