@<TRIPOS>MOLECULE
JZ6
    9     9     1     0     0
SMALL
abcg2


@<TRIPOS>ATOM
      1 CLAA         1.9400     0.0870    -0.0460 cl         1 JZ6      -0.156000
      2 CAB         -0.5770    -1.0620    -0.0240 cc         1 JZ6      -0.161000
      3 CAC         -0.6440     1.1490    -0.0180 cd         1 JZ6       0.254900
      4 NAD         -1.8310    -0.5870    -0.0100 na         1 JZ6       0.001800
      5 NAE         -1.8970     0.7370    -0.0060 nc         1 JZ6      -0.513800
      6 CAF          0.2300     0.0510    -0.0290 cd         1 JZ6      -0.017000
      7 HAB         -0.3490    -2.1140    -0.0290 h4         1 JZ6       0.166000
      8 HAC         -0.3990     2.2000    -0.0180 h4         1 JZ6       0.049100
      9 HNAD        -2.6800    -1.1310    -0.0050 hn         1 JZ6       0.376000
@<TRIPOS>BOND
     1     1     6 1   
     2     2     4 1   
     3     2     6 2   
     4     2     7 1   
     5     3     5 2   
     6     3     6 1   
     7     3     8 1   
     8     4     5 1   
     9     4     9 1   
@<TRIPOS>SUBSTRUCTURE
     1 JZ6         1 TEMP              0 ****  ****    0 ROOT
