@<TRIPOS>MOLECULE
JZ8
   36    39     1     0     0
SMALL
No Charge or Current Charge


@<TRIPOS>ATOM
      1 C1           1.6150    -2.0170    -0.8160 ca         1 JZ8      -0.130000
      2 N1          -0.5180    -1.0560    -0.1690 nu         1 JZ8      -0.281500
      3 C2           0.8870    -0.9820    -0.1990 ca         1 JZ8      -0.118200
      4 N2          -2.6970    -0.3690     0.6280 na         1 JZ8      -0.121800
      5 C3           1.5840     0.0850     0.4070 ca         1 JZ8      -0.055000
      6 N3          -3.2300    -1.6700     0.5970 na         1 JZ8      -0.206700
      7 C4           2.9910     0.1290     0.3730 ca         1 JZ8      -0.043000
      8 N4          -4.8800    -0.2080     0.3060 na         1 JZ8      -0.116000
      9 C5           3.6820     1.1990     0.9740 ca         1 JZ8      -0.101000
     10 N5          -3.6110     1.7450    -0.0940 nc         1 JZ8      -0.233600
     11 C6           5.0870     1.2410     0.9380 ca         1 JZ8      -0.065000
     12 C7           5.8060     0.2130     0.3030 ca         1 JZ8      -0.054000
     13 C8           5.1200    -0.8590    -0.2970 ca         1 JZ8      -0.096000
     14 C9           3.7130    -0.9040    -0.2630 ca         1 JZ8      -0.015000
     15 C10          3.0200    -1.9760    -0.8530 ca         1 JZ8      -0.034000
     16 C11         -1.5010    -0.0990    -0.0370 cd         1 JZ8       0.483100
     17 C12         -1.2930     1.2350    -0.5060 cd         1 JZ8      -0.386600
     18 C13         -2.3370     2.1440    -0.4610 cc         1 JZ8       0.297400
     19 C14         -2.2020     3.5550    -0.9510 c3         1 JZ8      -0.081900
     20 C15         -3.7240     0.5250     0.4130 cd         1 JZ8       0.056000
     21 C16         -4.6130    -1.5600     0.4300 cc         1 JZ8       0.147700
     22 H1           1.0980    -2.8550    -1.2790 ha         1 JZ8       0.129000
     23 HN1         -0.9000    -1.9780    -0.3480 hn         1 JZ8       0.366000
     24 H3           1.0410     0.8740     0.9220 ha         1 JZ8       0.122000
     25 HN4         -5.7940     0.1860     0.1150 hn         1 JZ8       0.470000
     26 H5           3.1340     1.9990     1.4680 ha         1 JZ8       0.127000
     27 H6           5.6190     2.0690     1.4020 ha         1 JZ8       0.146000
     28 H7           6.8930     0.2470     0.2760 ha         1 JZ8       0.149000
     29 H8           5.6840    -1.6510    -0.7840 ha         1 JZ8       0.142000
     30 H10          3.5680    -2.7800    -1.3400 ha         1 JZ8       0.153000
     31 H12         -0.3450     1.5180    -0.9460 ha         1 JZ8       0.283000
     32 H14         -2.9350     4.2140    -0.4720 hc         1 JZ8       0.110033
     33 H14A        -1.2050     3.9530    -0.7330 hc         1 JZ8       0.110033
     34 H14B        -2.3590     3.6030    -2.0340 hc         1 JZ8       0.110033
     35 H16         -5.3430    -2.3650     0.4720 h5         1 JZ8       0.277000
     36 HN3         -2.7340    -2.4180     1.0800 hn         1 JZ8       0.461000
@<TRIPOS>BOND
     1     1     3 ar  
     2     1    15 ar  
     3     1    22 1   
     4     2     3 1   
     5     2    16 2   
     6     2    23 1   
     7     3     5 ar  
     8     4     6 1   
     9     4    16 1   
    10     4    20 1   
    11     5     7 ar  
    12     5    24 1   
    13     6    21 2   
    14     6    36 1   
    15     7     9 ar  
    16     7    14 ar  
    17     8    20 1   
    18     8    21 1   
    19     8    25 1   
    20     9    11 ar  
    21     9    26 1   
    22    10    18 1   
    23    10    20 2   
    24    11    12 ar  
    25    11    27 1   
    26    12    13 ar  
    27    12    28 1   
    28    13    14 ar  
    29    13    29 1   
    30    14    15 ar  
    31    15    30 1   
    32    16    17 1   
    33    17    18 2   
    34    17    31 1   
    35    18    19 1   
    36    19    32 1   
    37    19    33 1   
    38    19    34 1   
    39    21    35 1   
@<TRIPOS>SUBSTRUCTURE
     1 JZ8         1 TEMP              0 ****  ****    0 ROOT
