@<TRIPOS>MOLECULE
JZ8
   36    39     1     0     0
SMALL
bcc


@<TRIPOS>ATOM
      1 C1           1.5190    -1.7240    -1.0280 ca         1 JZ8      -0.148000
      2 N1          -0.5350    -1.2100     0.1800 nu         1 JZ8      -0.231200
      3 C2           0.8660    -1.0120    -0.0020 ca         1 JZ8      -0.118200
      4 N2          -2.7470    -0.4790     0.2080 na         1 JZ8      -0.172500
      5 C3           1.5420    -0.1540     0.8190 ca         1 JZ8      -0.073000
      6 N3          -3.3670    -1.5680     0.7200 na         1 JZ8      -0.156400
      7 C4           2.9270     0.0510     0.6330 ca         1 JZ8      -0.043000
      8 N4          -4.8740    -0.1010     0.3350 na         1 JZ8      -0.167100
      9 C5           3.6600     0.9390     1.4540 ca         1 JZ8      -0.119000
     10 N5          -3.4760     1.6390    -0.5190 nc         1 JZ8      -0.233600
     11 C6           5.0010     1.1180     1.2540 ca         1 JZ8      -0.083000
     12 C7           5.6700     0.4160     0.2300 ca         1 JZ8      -0.072000
     13 C8           4.9860    -0.4540    -0.5760 ca         1 JZ8      -0.114000
     14 C9           3.5990    -0.6590    -0.3960 ca         1 JZ8      -0.015000
     15 C10          2.8620    -1.5500    -1.2120 ca         1 JZ8      -0.052000
     16 C11         -1.4240    -0.2660    -0.0600 cd         1 JZ8       0.483100
     17 C12         -1.1660     1.0060    -0.5840 cd         1 JZ8      -0.336600
     18 C13         -2.1820     1.9170    -0.7960 cc         1 JZ8       0.297400
     19 C14         -1.9030     3.2690    -1.3400 c3         1 JZ8      -0.081900
     20 C15         -3.6930     0.4730    -0.0410 cd         1 JZ8       0.157400
     21 C16         -4.6470    -1.3190     0.7890 cc         1 JZ8       0.180400
     22 H1           0.9540    -2.3950    -1.6610 ha         1 JZ8       0.147000
     23 HN1         -0.8240    -2.1430     0.4400 hn         1 JZ8       0.315700
     24 H3           1.0240     0.3710     1.6120 ha         1 JZ8       0.140000
     25 HN4         -5.7840     0.3460     0.2720 hn         1 JZ8       0.419700
     26 H5           3.1440     1.4760     2.2410 ha         1 JZ8       0.145000
     27 H6           5.5570     1.8000     1.8830 ha         1 JZ8       0.164000
     28 H7           6.7310     0.5690     0.0830 ha         1 JZ8       0.167000
     29 H8           5.5000    -0.9930    -1.3620 ha         1 JZ8       0.160000
     30 H10          3.3730    -2.0910    -1.9980 ha         1 JZ8       0.171000
     31 H12         -0.1500     1.2680    -0.8330 ha         1 JZ8       0.233000
     32 H14         -2.1520     4.0190    -0.5880 hc         1 JZ8       0.110033
     33 H14A        -0.8600     3.3880    -1.6180 hc         1 JZ8       0.110033
     34 H14B        -2.5320     3.4620    -2.2090 hc         1 JZ8       0.110033
     35 H16         -5.3850    -2.0110     1.1630 h5         1 JZ8       0.295000
     36 HN3         -2.8910    -2.4100     1.0260 hn         1 JZ8       0.410700
@<TRIPOS>BOND
     1     1     3 ar  
     2     1    15 ar  
     3     1    22 1   
     4     2     3 1   
     5     2    16 2   
     6     2    23 1   
     7     3     5 ar  
     8     4     6 1   
     9     4    16 1   
    10     4    20 1   
    11     5     7 ar  
    12     5    24 1   
    13     6    21 2   
    14     6    36 1   
    15     7     9 ar  
    16     7    14 ar  
    17     8    20 1   
    18     8    21 1   
    19     8    25 1   
    20     9    11 ar  
    21     9    26 1   
    22    10    18 1   
    23    10    20 2   
    24    11    12 ar  
    25    11    27 1   
    26    12    13 ar  
    27    12    28 1   
    28    13    14 ar  
    29    13    29 1   
    30    14    15 ar  
    31    15    30 1   
    32    16    17 1   
    33    17    18 2   
    34    17    31 1   
    35    18    19 1   
    36    19    32 1   
    37    19    33 1   
    38    19    34 1   
    39    21    35 1   
@<TRIPOS>SUBSTRUCTURE
     1 JZ8         1 TEMP              0 ****  ****    0 ROOT
