@<TRIPOS>MOLECULE
JZ9
   20    21     1     0     0
SMALL
abcg2


@<TRIPOS>ATOM
      1 CAA         -2.4540    -0.0570     0.0210 cc         1 JZ9      -0.201000
      2 CAB         -1.6720    -1.1830     0.0850 cd         1 JZ9      -0.171000
      3 CAC          2.1320    -0.6690    -0.3460 c6         1 JZ9      -0.074400
      4 CAD          2.1030     0.7020     0.3270 c6         1 JZ9      -0.067400
      5 CAE          0.9560    -1.5430     0.0980 c6         1 JZ9       0.003900
      6 CAF          0.8660     1.5070    -0.0780 c6         1 JZ9      -0.002100
      7 NAG         -1.6280     1.0240    -0.0420 na         1 JZ9      -0.106000
      8 CAH         -0.3160    -0.7550     0.0580 cd         1 JZ9      -0.147300
      9 CAI         -0.3280     0.6170    -0.0180 cc         1 JZ9      -0.173300
     10 HAA         -3.5260     0.0580     0.0160 h4         1 JZ9       0.142000
     11 HAB         -2.0310    -2.2000     0.1440 ha         1 JZ9       0.129000
     12 HAC          2.0970    -0.5360    -1.4320 hc         1 JZ9       0.039200
     13 HACA         3.0740    -1.1740    -0.1230 hc         1 JZ9       0.039200
     14 HAD          2.1110     0.5700     1.4130 hc         1 JZ9       0.040700
     15 HADA         3.0040     1.2650     0.0740 hc         1 JZ9       0.040700
     16 HAE          0.8870    -2.4280    -0.5420 hc         1 JZ9       0.042700
     17 HAEA         1.1440    -1.9190     1.1100 hc         1 JZ9       0.042700
     18 HAF          0.7490     2.3730     0.5800 hc         1 JZ9       0.042700
     19 HAFA         0.9990     1.9070    -1.0890 hc         1 JZ9       0.042700
     20 HNAG        -1.9350     1.9810    -0.0980 hn         1 JZ9       0.339000
@<TRIPOS>BOND
     1     1     2 2   
     2     1     7 1   
     3     1    10 1   
     4     2     8 1   
     5     2    11 1   
     6     3     4 1   
     7     3     5 1   
     8     3    12 1   
     9     3    13 1   
    10     4     6 1   
    11     4    14 1   
    12     4    15 1   
    13     5     8 1   
    14     5    16 1   
    15     5    17 1   
    16     6     9 1   
    17     6    18 1   
    18     6    19 1   
    19     7     9 1   
    20     7    20 1   
    21     8     9 2   
@<TRIPOS>SUBSTRUCTURE
     1 JZ9         1 TEMP              0 ****  ****    0 ROOT
