@<TRIPOS>MOLECULE
JZ9
   20    21     1     0     0
SMALL
No Charge or Current Charge


@<TRIPOS>ATOM
      1 CAA         -2.5060    -0.0900     0.0310 cc         1 JZ9      -0.201000
      2 CAB         -1.6610    -1.1680     0.0760 cd         1 JZ9      -0.171000
      3 CAC          2.1610    -0.6930    -0.3370 c6         1 JZ9      -0.074400
      4 CAD          2.1450     0.7120     0.3280 c6         1 JZ9      -0.067400
      5 CAE          0.9290    -1.5420     0.0830 c6         1 JZ9       0.003900
      6 CAF          0.8880     1.5310    -0.0800 c6         1 JZ9      -0.002100
      7 NAG         -1.6830     1.0410    -0.0290 na         1 JZ9      -0.106000
      8 CAH         -0.3310    -0.7050     0.0440 cd         1 JZ9      -0.147300
      9 CAI         -0.3410     0.6570    -0.0160 cc         1 JZ9      -0.173300
     10 HAA         -3.5890    -0.0320     0.0350 h4         1 JZ9       0.142000
     11 HAB         -1.9680    -2.2080     0.1290 ha         1 JZ9       0.129000
     12 HAC          2.1680    -0.5770    -1.4300 hc         1 JZ9       0.039200
     13 HACA         3.0850    -1.2260    -0.0750 hc         1 JZ9       0.039200
     14 HAD          2.1670     0.5950     1.4200 hc         1 JZ9       0.040700
     15 HADA         3.0530     1.2680     0.0570 hc         1 JZ9       0.040700
     16 HAE          0.8380    -2.4190    -0.5730 hc         1 JZ9       0.042700
     17 HAEA         1.0820    -1.9290     1.1000 hc         1 JZ9       0.042700
     18 HAF          0.7880     2.4090     0.5730 hc         1 JZ9       0.042700
     19 HAFA         1.0210     1.9160    -1.1010 hc         1 JZ9       0.042700
     20 HNAG        -2.0130     2.0010    -0.0750 hn         1 JZ9       0.339000
@<TRIPOS>BOND
     1     1     2 2   
     2     1     7 1   
     3     1    10 1   
     4     2     8 1   
     5     2    11 1   
     6     3     4 1   
     7     3     5 1   
     8     3    12 1   
     9     3    13 1   
    10     4     6 1   
    11     4    14 1   
    12     4    15 1   
    13     5     8 1   
    14     5    16 1   
    15     5    17 1   
    16     6     9 1   
    17     6    18 1   
    18     6    19 1   
    19     7     9 1   
    20     7    20 1   
    21     8     9 2   
@<TRIPOS>SUBSTRUCTURE
     1 JZ9         1 TEMP              0 ****  ****    0 ROOT
