@<TRIPOS>MOLECULE
JZA
   26    27     1     0     0
SMALL
No Charge or Current Charge


@<TRIPOS>ATOM
      1 C11         -1.6460    -1.1970    -0.4790 c6         1 JZA       0.064500
      2 C13         -3.0700    -1.3100    -1.0760 c6         1 JZA       0.127600
      3 O14         -4.0320    -0.6820    -0.2130 os         1 JZA      -0.442000
      4 C12         -3.7960     0.7300    -0.0820 c6         1 JZA       0.127600
      5 C10         -2.4160     1.0020     0.5690 c6         1 JZA       0.064500
      6 N9          -1.2790     0.1600     0.0640 n          1 JZA      -0.406800
      7 C7           0.0650     0.5370     0.3500 c          1 JZA       0.674100
      8 O8           0.2630     1.6610     0.7870 o          1 JZA      -0.604100
      9 N6           0.9980    -0.4530     0.0350 nj         1 JZA      -0.467200
     10 C5           0.9220    -1.2210     1.3280 cy         1 JZA       0.111000
     11 C4           2.4820    -1.1290     1.1220 cy         1 JZA      -0.338400
     12 S1           2.6030    -0.1890    -0.4390 s6         1 JZA       1.194800
     13 O2           2.8900    -1.0050    -1.6260 o          1 JZA      -0.497500
     14 O3           2.9560     1.2290    -0.3020 o          1 JZA      -0.497500
     15 H11         -1.5680    -1.9310     0.3350 h1         1 JZA       0.067700
     16 H11A        -0.9270    -1.4960    -1.2550 h1         1 JZA       0.067700
     17 H13         -3.1010    -0.8270    -2.0640 h1         1 JZA       0.058700
     18 H13A        -3.3370    -2.3680    -1.2090 h1         1 JZA       0.058700
     19 H12         -3.8350     1.1950    -1.0780 h1         1 JZA       0.058700
     20 H12A        -4.5930     1.1770     0.5290 h1         1 JZA       0.058700
     21 H10         -2.1810     2.0670     0.4280 h1         1 JZA       0.067700
     22 H10A        -2.5070     0.8400     1.6530 h1         1 JZA       0.067700
     23 H5           0.5470    -0.6950     2.2180 h1         1 JZA       0.073200
     24 H5A          0.5000    -2.2270     1.2230 h1         1 JZA       0.073200
     25 H4           2.9910    -0.5740     1.9130 h1         1 JZA       0.119200
     26 H4A          2.9600    -2.1020     0.9930 h1         1 JZA       0.119200
@<TRIPOS>BOND
     1     1     2 1   
     2     1     6 1   
     3     1    15 1   
     4     1    16 1   
     5     2     3 1   
     6     2    17 1   
     7     2    18 1   
     8     3     4 1   
     9     4     5 1   
    10     4    19 1   
    11     4    20 1   
    12     5     6 1   
    13     5    21 1   
    14     5    22 1   
    15     6     7 1   
    16     7     8 2   
    17     7     9 1   
    18     9    10 1   
    19     9    12 1   
    20    10    11 1   
    21    10    23 1   
    22    10    24 1   
    23    11    12 1   
    24    11    25 1   
    25    11    26 1   
    26    12    13 2   
    27    12    14 2   
@<TRIPOS>SUBSTRUCTURE
     1 JZA         1 TEMP              0 ****  ****    0 ROOT
