@<TRIPOS>MOLECULE
JZA
   26    27     1     0     0
SMALL
abcg2


@<TRIPOS>ATOM
      1 C11         -1.8870    -1.2820     0.2850 c6         1 JZA       0.064500
      2 C13         -2.9860    -1.3630    -0.7660 c6         1 JZA       0.127600
      3 O14         -4.0470    -0.4780    -0.4950 os         1 JZA      -0.442000
      4 C12         -3.5940     0.8580    -0.4460 c6         1 JZA       0.127600
      5 C10         -2.5340     1.0310     0.6250 c6         1 JZA       0.064500
      6 N9          -1.4370     0.0970     0.4130 n          1 JZA      -0.406800
      7 C7          -0.2330     0.5630     0.0250 c          1 JZA       0.674100
      8 O8          -0.0060     1.7100    -0.3240 o          1 JZA      -0.604100
      9 N6           0.8250    -0.3440     0.0480 nj         1 JZA      -0.467200
     10 C5           1.1650    -1.4240     0.9970 cy         1 JZA       0.111000
     11 C4           2.6760    -1.3600     0.7290 cy         1 JZA      -0.338400
     12 S1           2.4240     0.1790    -0.1610 s6         1 JZA       1.194800
     13 O2           2.8130     0.1860    -1.5550 o          1 JZA      -0.497500
     14 O3           2.7610     1.3320     0.6510 o          1 JZA      -0.497500
     15 H11         -2.2530    -1.6350     1.2530 h1         1 JZA       0.067700
     16 H11A        -1.0800    -1.9370    -0.0280 h1         1 JZA       0.067700
     17 H13         -2.5510    -1.1540    -1.7530 h1         1 JZA       0.058700
     18 H13A        -3.3960    -2.3740    -0.7850 h1         1 JZA       0.058700
     19 H12         -3.1870     1.1640    -1.4200 h1         1 JZA       0.058700
     20 H12A        -4.4550     1.4900    -0.2240 h1         1 JZA       0.058700
     21 H10         -2.1620     2.0520     0.6300 h1         1 JZA       0.067700
     22 H10A        -2.9650     0.8260     1.6100 h1         1 JZA       0.067700
     23 H5           0.9020    -1.1740     2.0230 h1         1 JZA       0.073200
     24 H5A          0.7350    -2.3820     0.7210 h1         1 JZA       0.073200
     25 H4           3.3180    -1.2450     1.5980 h1         1 JZA       0.119200
     26 H4A          3.0450    -2.1450     0.0730 h1         1 JZA       0.119200
@<TRIPOS>BOND
     1     1     2 1   
     2     1     6 1   
     3     1    15 1   
     4     1    16 1   
     5     2     3 1   
     6     2    17 1   
     7     2    18 1   
     8     3     4 1   
     9     4     5 1   
    10     4    19 1   
    11     4    20 1   
    12     5     6 1   
    13     5    21 1   
    14     5    22 1   
    15     6     7 1   
    16     7     8 2   
    17     7     9 1   
    18     9    10 1   
    19     9    12 1   
    20    10    11 1   
    21    10    23 1   
    22    10    24 1   
    23    11    12 1   
    24    11    25 1   
    25    11    26 1   
    26    12    13 2   
    27    12    14 2   
@<TRIPOS>SUBSTRUCTURE
     1 JZA         1 TEMP              0 ****  ****    0 ROOT
