@<TRIPOS>MOLECULE
JZB
   62    64     1     0     0
SMALL
No Charge or Current Charge


@<TRIPOS>ATOM
      1 Cl          -1.1890     2.7430     2.0500 cl         1 JZB      -0.212000
      2 C1          -1.1310     2.4540    -1.9860 ca         1 JZB      -0.203000
      3 N1           0.4720    -1.1060     1.4640 n2         1 JZB      -0.333700
      4 O1           2.8840     1.1330    -2.4600 os         1 JZB      -0.481100
      5 C2          -1.5060     2.7200    -0.6680 ca         1 JZB       0.239100
      6 N2          -4.3060    -1.8370     0.7340 n          1 JZB      -0.415800
      7 O2           2.1650    -0.6790    -1.2660 o          1 JZB      -0.455000
      8 C3          -0.6830     2.3190     0.4010 ca         1 JZB      -0.001000
      9 O3          -2.6710     3.3930    -0.4340 oh         1 JZB      -0.517100
     10 C4           0.5180     1.6030     0.1450 ca         1 JZB       0.086700
     11 O4           0.4040     1.5600    -3.5500 oh         1 JZB      -0.533100
     12 C5           0.8770     1.3200    -1.2000 ca         1 JZB      -0.267600
     13 O5          -0.8310    -0.5910     1.6250 os         1 JZB      -0.280000
     14 C6           0.0570     1.7730    -2.2520 ca         1 JZB       0.236100
     15 O6          -3.5090     0.1130     1.6450 o          1 JZB      -0.583100
     16 C7           1.4550     1.2000     1.2950 c3         1 JZB      -0.103400
     17 C8           2.0990     0.5120    -1.5200 c          1 JZB       0.613700
     18 C9           1.4330    -0.2660     1.7170 ce         1 JZB       0.464600
     19 C10          2.7510    -0.8230     2.0640 ce         1 JZB      -0.293600
     20 C11          4.0360     0.4490    -3.0050 c3         1 JZB       0.175600
     21 C12          5.1580     0.3200    -1.9380 c3         1 JZB      -0.064200
     22 C13          5.1790    -1.0160    -1.2140 c2         1 JZB      -0.202200
     23 C14          5.4920    -1.2040     0.0780 c2         1 JZB      -0.213200
     24 C15          5.4820    -2.5490     0.7850 c3         1 JZB      -0.035200
     25 C16          3.1950    -2.0710     1.7810 c2         1 JZB      -0.151200
     26 C17          4.6010    -2.5630     2.0530 c3         1 JZB      -0.046200
     27 C18         -1.8000    -1.5360     1.1180 c3         1 JZB       0.084600
     28 C19         -3.2560    -0.9990     1.1900 c          1 JZB       0.604100
     29 C20         -5.7250    -1.3900     0.7130 c6         1 JZB       0.097500
     30 C21         -6.2090    -1.1910    -0.7440 c6         1 JZB      -0.098900
     31 C22         -5.9940    -2.4770    -1.5810 c6         1 JZB      -0.073400
     32 C23         -4.5260    -2.9630    -1.4810 c6         1 JZB      -0.098900
     33 C24         -4.0950    -3.1140    -0.0020 c6         1 JZB       0.097500
     34 H1          -1.7620     2.7860    -2.8050 ha         1 JZB       0.150000
     35 HO3         -2.7830     3.4460     0.5400 ho         1 JZB       0.483000
     36 HO4          1.3720     1.3770    -3.5590 ho         1 JZB       0.489000
     37 H7           2.4780     1.4790     1.0140 hc         1 JZB       0.067700
     38 H7A          1.2670     1.8070     2.1840 hc         1 JZB       0.067700
     39 H10          3.4390    -0.1110     2.5190 ha         1 JZB       0.173000
     40 H11          3.7670    -0.5370    -3.4090 h1         1 JZB       0.058200
     41 H11A         4.4340     1.0400    -3.8400 h1         1 JZB       0.058200
     42 H12          6.1160     0.4390    -2.4580 hc         1 JZB       0.055200
     43 H12A         5.0960     1.1560    -1.2290 hc         1 JZB       0.055200
     44 H13          4.9010    -1.8710    -1.8340 ha         1 JZB       0.170000
     45 H14          5.7690    -0.3590     0.7110 ha         1 JZB       0.164000
     46 H15          5.1270    -3.3320     0.1030 hc         1 JZB       0.046200
     47 H15A         6.5050    -2.8280     1.0650 hc         1 JZB       0.046200
     48 H16          2.5530    -2.8000     1.2800 ha         1 JZB       0.191000
     49 H17          4.5700    -3.5830     2.4550 hc         1 JZB       0.046700
     50 H17A         5.0760    -1.9430     2.8230 hc         1 JZB       0.046700
     51 H18         -1.5890    -1.7660     0.0660 h1         1 JZB       0.049700
     52 H18A        -1.7610    -2.4720     1.6890 h1         1 JZB       0.049700
     53 H20         -6.3460    -2.1520     1.2040 h1         1 JZB       0.053200
     54 H20A        -5.8570    -0.4560     1.2760 h1         1 JZB       0.053200
     55 H21         -7.2710    -0.9100    -0.7500 hc         1 JZB       0.050450
     56 H21A        -5.6600    -0.3550    -1.2000 hc         1 JZB       0.050450
     57 H22         -6.6680    -3.2670    -1.2220 hc         1 JZB       0.041700
     58 H22A        -6.2590    -2.2920    -2.6310 hc         1 JZB       0.041700
     59 H23         -4.4100    -3.9210    -2.0040 hc         1 JZB       0.050450
     60 H23A        -3.8620    -2.2460    -1.9840 hc         1 JZB       0.050450
     61 H24         -3.0520    -3.4520     0.0430 h1         1 JZB       0.053200
     62 H24A        -4.7010    -3.8990     0.4720 h1         1 JZB       0.053200
@<TRIPOS>BOND
     1     1     8 1   
     2     2     5 ar  
     3     2    14 ar  
     4     2    34 1   
     5     3    13 1   
     6     3    18 2   
     7     4    17 1   
     8     4    20 1   
     9     5     8 ar  
    10     5     9 1   
    11     6    28 1   
    12     6    29 1   
    13     6    33 1   
    14     7    17 2   
    15     8    10 ar  
    16     9    35 1   
    17    10    12 ar  
    18    10    16 1   
    19    11    14 1   
    20    11    36 1   
    21    12    14 ar  
    22    12    17 1   
    23    13    27 1   
    24    15    28 2   
    25    16    18 1   
    26    16    37 1   
    27    16    38 1   
    28    18    19 1   
    29    19    25 2   
    30    19    39 1   
    31    20    21 1   
    32    20    40 1   
    33    20    41 1   
    34    21    22 1   
    35    21    42 1   
    36    21    43 1   
    37    22    23 2   
    38    22    44 1   
    39    23    24 1   
    40    23    45 1   
    41    24    26 1   
    42    24    46 1   
    43    24    47 1   
    44    25    26 1   
    45    25    48 1   
    46    26    49 1   
    47    26    50 1   
    48    27    28 1   
    49    27    51 1   
    50    27    52 1   
    51    29    30 1   
    52    29    53 1   
    53    29    54 1   
    54    30    31 1   
    55    30    55 1   
    56    30    56 1   
    57    31    32 1   
    58    31    57 1   
    59    31    58 1   
    60    32    33 1   
    61    32    59 1   
    62    32    60 1   
    63    33    61 1   
    64    33    62 1   
@<TRIPOS>SUBSTRUCTURE
     1 JZB         1 TEMP              0 ****  ****    0 ROOT
