@<TRIPOS>MOLECULE
JZB
   62    64     1     0     0
SMALL
abcg2


@<TRIPOS>ATOM
      1 CL          -1.6740     1.4440     1.8500 cl         1 JZB      -0.212000
      2 C1          -0.8060     3.0730    -1.6670 ca         1 JZB      -0.203000
      3 N1           0.3810    -1.7400     0.7510 n2         1 JZB      -0.333700
      4 O1           3.2370     1.8450    -1.9950 os         1 JZB      -0.481100
      5 C2          -1.4710     2.6770    -0.5200 ca         1 JZB       0.239100
      6 N2          -4.2790    -1.4820     0.2530 n          1 JZB      -0.415800
      7 O2           2.5380    -0.1550    -1.2900 o          1 JZB      -0.455000
      8 C3          -0.8110     1.8590     0.4040 ca         1 JZB      -0.001000
      9 O3          -2.7120     3.1300    -0.3360 oh         1 JZB      -0.517100
     10 C4           0.4520     1.3580     0.1530 ca         1 JZB       0.086700
     11 O4           1.0380     3.0410    -3.0680 oh         1 JZB      -0.533100
     12 C5           1.0980     1.7170    -1.0420 ca         1 JZB      -0.267600
     13 O5          -0.7190    -1.0920     0.2340 os         1 JZB      -0.280000
     14 C6           0.4770     2.6150    -1.9270 ca         1 JZB       0.236100
     15 O6          -2.8430    -0.1500    -0.8780 o          1 JZB      -0.583100
     16 C7           1.1980     0.5800     1.2050 c3         1 JZB      -0.103400
     17 C8           2.3490     1.0230    -1.4290 c          1 JZB       0.613700
     18 C9           1.2850    -0.9270     1.1240 ce         1 JZB       0.464600
     19 C10          2.5560    -1.4700     1.6120 ce         1 JZB      -0.293600
     20 C11          4.4340     1.2960    -2.5840 c3         1 JZB       0.175600
     21 C12          5.4970     0.8490    -1.5850 c3         1 JZB      -0.064200
     22 C13          5.4410    -0.5920    -1.1790 c2         1 JZB      -0.202200
     23 C14          5.6490    -1.0700     0.0420 c2         1 JZB      -0.213200
     24 C15          5.6360    -2.5270     0.3860 c3         1 JZB      -0.035200
     25 C16          3.2300    -2.4700     1.0510 c2         1 JZB      -0.151200
     26 C17          4.6030    -2.8740     1.4710 c3         1 JZB      -0.046200
     27 C18         -1.8790    -1.8180     0.5310 c3         1 JZB       0.084600
     28 C19         -3.0450    -1.0740    -0.1070 c          1 JZB       0.604100
     29 C20         -5.4630    -0.8240    -0.2760 c6         1 JZB       0.097500
     30 C21         -6.2470    -1.7600    -1.1850 c6         1 JZB      -0.098900
     31 C22         -6.5820    -3.0610    -0.4620 c6         1 JZB      -0.073400
     32 C23         -5.3250    -3.6900     0.1290 c6         1 JZB      -0.098900
     33 C24         -4.5710    -2.6930     1.0010 c6         1 JZB       0.097500
     34 H1          -1.2960     3.7350    -2.3710 ha         1 JZB       0.150000
     35 HO3         -3.1140     2.7350     0.4490 ho         1 JZB       0.483000
     36 HO4          1.9830     2.8370    -3.0770 ho         1 JZB       0.489000
     37 H7           2.2230     0.9530     1.2420 hc         1 JZB       0.067700
     38 H7A          0.7870     0.8130     2.1900 hc         1 JZB       0.067700
     39 H10          3.0080    -0.9190     2.4330 ha         1 JZB       0.173000
     40 H11          4.1710     0.4870    -3.2680 h1         1 JZB       0.058200
     41 H11A         4.8160     2.1250    -3.1760 h1         1 JZB       0.058200
     42 H12          6.4540     1.0210    -2.0900 hc         1 JZB       0.055200
     43 H12A         5.5010     1.5110    -0.7150 hc         1 JZB       0.055200
     44 H13          5.2630    -1.2960    -1.9890 ha         1 JZB       0.170000
     45 H14          5.8210    -0.3780     0.8650 ha         1 JZB       0.164000
     46 H15          5.4350    -3.1160    -0.5130 hc         1 JZB       0.046200
     47 H15A         6.6220    -2.8390     0.7480 hc         1 JZB       0.046200
     48 H16          2.8140    -2.9720     0.1820 ha         1 JZB       0.191000
     49 H17          4.6430    -3.9510     1.6600 hc         1 JZB       0.046700
     50 H17A         4.8710    -2.3760     2.4060 hc         1 JZB       0.046700
     51 H18         -1.8170    -2.8440     0.1420 h1         1 JZB       0.049700
     52 H18A        -2.0220    -1.8890     1.6150 h1         1 JZB       0.049700
     53 H20         -6.0870    -0.5230     0.5730 h1         1 JZB       0.053200
     54 H20A        -5.1660     0.0820    -0.7980 h1         1 JZB       0.053200
     55 H21         -7.1580    -1.2580    -1.5180 hc         1 JZB       0.050450
     56 H21A        -5.6540    -1.9740    -2.0790 hc         1 JZB       0.050450
     57 H22         -7.2990    -2.8570     0.3400 hc         1 JZB       0.041700
     58 H22A        -7.0720    -3.7600    -1.1440 hc         1 JZB       0.041700
     59 H23         -5.5770    -4.5690     0.7270 hc         1 JZB       0.050450
     60 H23A        -4.6660    -4.0290    -0.6760 hc         1 JZB       0.050450
     61 H24         -3.6610    -3.1450     1.3850 h1         1 JZB       0.053200
     62 H24A        -5.1790    -2.4250     1.8720 h1         1 JZB       0.053200
@<TRIPOS>BOND
     1     1     8 1   
     2     2     5 ar  
     3     2    14 ar  
     4     2    34 1   
     5     3    13 1   
     6     3    18 2   
     7     4    17 1   
     8     4    20 1   
     9     5     8 ar  
    10     5     9 1   
    11     6    28 1   
    12     6    29 1   
    13     6    33 1   
    14     7    17 2   
    15     8    10 ar  
    16     9    35 1   
    17    10    12 ar  
    18    10    16 1   
    19    11    14 1   
    20    11    36 1   
    21    12    14 ar  
    22    12    17 1   
    23    13    27 1   
    24    15    28 2   
    25    16    18 1   
    26    16    37 1   
    27    16    38 1   
    28    18    19 1   
    29    19    25 2   
    30    19    39 1   
    31    20    21 1   
    32    20    40 1   
    33    20    41 1   
    34    21    22 1   
    35    21    42 1   
    36    21    43 1   
    37    22    23 2   
    38    22    44 1   
    39    23    24 1   
    40    23    45 1   
    41    24    26 1   
    42    24    46 1   
    43    24    47 1   
    44    25    26 1   
    45    25    48 1   
    46    26    49 1   
    47    26    50 1   
    48    27    28 1   
    49    27    51 1   
    50    27    52 1   
    51    29    30 1   
    52    29    53 1   
    53    29    54 1   
    54    30    31 1   
    55    30    55 1   
    56    30    56 1   
    57    31    32 1   
    58    31    57 1   
    59    31    58 1   
    60    32    33 1   
    61    32    59 1   
    62    32    60 1   
    63    33    61 1   
    64    33    62 1   
@<TRIPOS>SUBSTRUCTURE
     1 JZB         1 TEMP              0 ****  ****    0 ROOT
