@<TRIPOS>MOLECULE
JZC
   62    64     1     0     0
SMALL
abcg2


@<TRIPOS>ATOM
      1 C1          66.9050    12.7830    23.9660 ca         1 JZC      -0.220000
      2 N1          72.1870    10.3590    23.6430 n2         1 JZC      -0.335700
      3 O1          68.3470     9.2520    26.9510 os         1 JZC      -0.436100
      4 C2          68.1390    12.8420    23.3480 ca         1 JZC       0.213100
      5 N2          73.5030    14.2790    24.6210 n          1 JZC      -0.403800
      6 O2          66.2860    10.0800    27.0870 o          1 JZC      -0.548000
      7 C3          69.1820    12.0200    23.7760 ca         1 JZC      -0.271000
      8 O3          68.2970    13.7240    22.3320 oh         1 JZC      -0.526100
      9 C4          69.0210    11.1340    24.8260 ca         1 JZC       0.077700
     10 C5          67.7570    11.0340    25.4760 ca         1 JZC      -0.294600
     11 O5          72.6030    11.4710    24.3900 os         1 JZC      -0.327000
     12 C6          66.7100    11.8930    25.0150 ca         1 JZC       0.253100
     13 O6          75.3140    13.0960    25.3160 o          1 JZC      -0.604100
     14 C7          70.2780    10.3760    25.2290 c3         1 JZC      -0.117400
     15 C8          67.4030    10.1020    26.5590 c          1 JZC       0.632700
     16 C9          71.0690     9.8700    24.0470 ce         1 JZC       0.438600
     17 C10         70.5840     8.7140    23.2960 ce         1 JZC      -0.292600
     18 C11         68.0190     8.2600    27.9620 c3         1 JZC       0.172600
     19 C12         67.3150     7.0450    27.3640 c3         1 JZC      -0.069200
     20 C13         68.1120     6.4140    26.2640 c2         1 JZC      -0.220200
     21 C14         67.7000     6.2760    25.0080 c2         1 JZC      -0.212200
     22 C15         68.5600     5.7940    23.8790 c3         1 JZC      -0.038200
     23 C16         69.4060     8.1330    23.5360 c2         1 JZC      -0.168200
     24 C17         68.8510     6.9260    22.8600 c3         1 JZC      -0.044200
     25 C18         73.8260    11.9620    23.8430 c3         1 JZC       0.088600
     26 C19         74.2680    13.1720    24.6630 c          1 JZC       0.602100
     27 C20         72.2740    14.4390    23.8420 c6         1 JZC       0.099500
     28 C21         71.0980    14.7790    24.7560 c6         1 JZC      -0.095900
     29 C22         71.4060    16.0050    25.6150 c6         1 JZC      -0.073400
     30 C23         72.7220    15.8190    26.3720 c6         1 JZC      -0.095900
     31 C24         73.8560    15.4560    25.4170 c6         1 JZC       0.099500
     32 H1          66.0890    13.4160    23.6460 ha         1 JZC       0.152000
     33 H3          70.1390    12.0950    23.2800 ha         1 JZC       0.124000
     34 HO3         69.2000    13.6800    21.9870 ho         1 JZC       0.469000
     35 HO4         65.4950    11.2040    26.2810 ho         1 JZC       0.522000
     36 H7          70.9010    11.0520    25.8140 hc         1 JZC       0.091700
     37 H7A         70.0450     9.5280    25.8570 hc         1 JZC       0.091700
     38 H10         71.2400     8.3430    22.5150 ha         1 JZC       0.192000
     39 H11         68.9890     7.9850    28.3700 h1         1 JZC       0.068200
     40 H11A        67.4150     8.7270    28.7360 h1         1 JZC       0.068200
     41 H12         67.1750     6.3440    28.1940 hc         1 JZC       0.063700
     42 H12A        66.3250     7.3270    27.0050 hc         1 JZC       0.063700
     43 H13         69.1240     6.1060    26.5230 ha         1 JZC       0.170000
     44 H14         66.6980     6.6100    24.7440 ha         1 JZC       0.170000
     45 H15         69.5060     5.4170    24.2740 hc         1 JZC       0.050200
     46 H15A        68.0730     4.9730    23.3440 hc         1 JZC       0.050200
     47 H16         68.7790     8.5380    24.3190 ha         1 JZC       0.181000
     48 H17         69.5290     6.5620    22.0860 hc         1 JZC       0.053200
     49 H17A        67.9080     7.1960    22.3710 hc         1 JZC       0.053200
     50 H18         74.6060    11.2070    23.9310 h1         1 JZC       0.063200
     51 H18A        73.6920    12.2200    22.7900 h1         1 JZC       0.063200
     52 H20         72.4350    15.2560    23.1300 h1         1 JZC       0.053450
     53 H20A        72.0720    13.5380    23.2740 h1         1 JZC       0.053450
     54 H21         70.2130    14.9510    24.1410 hc         1 JZC       0.051950
     55 H21A        70.8880    13.9170    25.3950 hc         1 JZC       0.051950
     56 H22         71.4860    16.8860    24.9690 hc         1 JZC       0.043200
     57 H22A        70.5880    16.1930    26.3130 hc         1 JZC       0.043200
     58 H23         72.9900    16.7300    26.9120 hc         1 JZC       0.051950
     59 H23A        72.6150    15.0200    27.1130 hc         1 JZC       0.051950
     60 H24         74.7770    15.2420    25.9500 h1         1 JZC       0.053450
     61 H24A        74.0420    16.2860    24.7260 h1         1 JZC       0.053450
     62 O4          65.4820    11.8870    25.5590 oh         1 JZC      -0.553100
@<TRIPOS>BOND
     1     1     4 ar  
     2     1    12 ar  
     3     1    32 1   
     4     2    11 1   
     5     2    16 2   
     6     3    15 1   
     7     3    18 1   
     8     4     7 ar  
     9     4     8 1   
    10     5    26 1   
    11     5    27 1   
    12     5    31 1   
    13     6    15 2   
    14     7     9 ar  
    15     7    33 1   
    16     8    34 1   
    17     9    10 ar  
    18     9    14 1   
    19    10    12 ar  
    20    10    15 1   
    21    11    25 1   
    22    12    62 1   
    23    13    26 2   
    24    14    16 1   
    25    14    36 1   
    26    14    37 1   
    27    16    17 1   
    28    17    23 2   
    29    17    38 1   
    30    18    19 1   
    31    18    39 1   
    32    18    40 1   
    33    19    20 1   
    34    19    41 1   
    35    19    42 1   
    36    20    21 2   
    37    20    43 1   
    38    21    22 1   
    39    21    44 1   
    40    22    24 1   
    41    22    45 1   
    42    22    46 1   
    43    23    24 1   
    44    23    47 1   
    45    24    48 1   
    46    24    49 1   
    47    25    26 1   
    48    25    50 1   
    49    25    51 1   
    50    27    28 1   
    51    27    52 1   
    52    27    53 1   
    53    28    29 1   
    54    28    54 1   
    55    28    55 1   
    56    29    30 1   
    57    29    56 1   
    58    29    57 1   
    59    30    31 1   
    60    30    58 1   
    61    30    59 1   
    62    31    60 1   
    63    31    61 1   
    64    35    62 1   
@<TRIPOS>SUBSTRUCTURE
     1 JZC         1 TEMP              0 ****  ****    0 ROOT
