@<TRIPOS>MOLECULE
JZC
   62    64     1     0     0
SMALL
No Charge or Current Charge


@<TRIPOS>ATOM
      1 C1          66.6200    12.8870    23.7610 ca         1 JZC      -0.220000
      2 N1          71.9300    10.4190    23.3080 n2         1 JZC      -0.335700
      3 O1          68.0600     9.6490    27.0360 os         1 JZC      -0.436100
      4 C2          67.9020    13.1190    23.2800 ca         1 JZC       0.213100
      5 N2          73.6440    14.3190    24.5150 n          1 JZC      -0.403800
      6 O2          65.9450     9.4850    26.2090 o          1 JZC      -0.548000
      7 C3          68.9550    12.3040    23.6940 ca         1 JZC      -0.271000
      8 O3          68.1200    14.1320    22.4000 oh         1 JZC      -0.526100
      9 C4          68.7530    11.2410    24.5970 ca         1 JZC       0.077700
     10 C5          67.4360    11.0070    25.1130 ca         1 JZC      -0.294600
     11 O5          72.4650    11.4720    24.0820 os         1 JZC      -0.327000
     12 C6          66.3850    11.8460    24.6590 ca         1 JZC       0.253100
     13 O6          75.4210    12.9080    24.8840 o          1 JZC      -0.604100
     14 C7          70.0020    10.4160    24.9380 c3         1 JZC      -0.117400
     15 C8          67.0880     9.9160    26.1120 c          1 JZC       0.632700
     16 C9          70.7950     9.9310    23.7230 ce         1 JZC       0.438600
     17 C10         70.4480     8.5970    23.2040 ce         1 JZC      -0.292600
     18 C11         67.8130     8.7030    28.1040 c3         1 JZC       0.172600
     19 C12         67.5450     7.2690    27.5620 c3         1 JZC      -0.069200
     20 C13         68.4730     6.7970    26.4530 c2         1 JZC      -0.220200
     21 C14         68.0680     6.1710    25.3340 c2         1 JZC      -0.212200
     22 C15         68.9720     5.6810    24.2160 c3         1 JZC      -0.038200
     23 C16         69.2340     8.0100    23.3290 c2         1 JZC      -0.168200
     24 C17         68.8990     6.5840    22.9660 c3         1 JZC      -0.044200
     25 C18         73.6900    11.9650    23.4920 c3         1 JZC       0.088600
     26 C19         74.3250    13.0820    24.3580 c          1 JZC       0.602100
     27 C20         72.2860    14.6010    23.9770 c6         1 JZC       0.099500
     28 C21         71.2650    14.7290    25.1330 c6         1 JZC      -0.095900
     29 C22         71.7170    15.8110    26.1470 c6         1 JZC      -0.073400
     30 C23         73.1670    15.5490    26.6290 c6         1 JZC      -0.095900
     31 C24         74.1330    15.3850    25.4290 c6         1 JZC       0.099500
     32 H1          65.7980    13.5170    23.4340 ha         1 JZC       0.152000
     33 H3          69.9510    12.4970    23.3060 ha         1 JZC       0.124000
     34 HO3         69.0590    14.1000    22.1260 ho         1 JZC       0.469000
     35 HO4         65.0980    10.8170    25.5860 ho         1 JZC       0.522000
     36 H7          70.6330    10.9890    25.6250 hc         1 JZC       0.091700
     37 H7A         69.7610     9.5150    25.4980 hc         1 JZC       0.091700
     38 H10         71.2670     8.0540    22.7330 ha         1 JZC       0.192000
     39 H11         68.6920     8.6640    28.7590 h1         1 JZC       0.068200
     40 H11A        66.9630     9.0250    28.7220 h1         1 JZC       0.068200
     41 H12         67.6290     6.5790    28.4110 hc         1 JZC       0.063700
     42 H12A        66.5000     7.1940    27.2390 hc         1 JZC       0.063700
     43 H13         69.5320     7.0020    26.6230 ha         1 JZC       0.170000
     44 H14         67.0070     5.9680    25.1690 ha         1 JZC       0.170000
     45 H15         70.0140     5.6480    24.5600 hc         1 JZC       0.050200
     46 H15A        68.7060     4.6540    23.9380 hc         1 JZC       0.050200
     47 H16         68.3970     8.5370    23.7890 ha         1 JZC       0.181000
     48 H17         69.5870     6.2040    22.2000 hc         1 JZC       0.053200
     49 H17A        67.8900     6.5300    22.5380 hc         1 JZC       0.053200
     50 H18         74.4270    11.1570    23.3950 h1         1 JZC       0.063200
     51 H18A        73.5050    12.3780    22.4930 h1         1 JZC       0.063200
     52 H20         72.3180    15.5480    23.4190 h1         1 JZC       0.053450
     53 H20A        71.9550    13.8320    23.2700 h1         1 JZC       0.053450
     54 H21         70.2740    14.9810    24.7330 hc         1 JZC       0.051950
     55 H21A        71.1620    13.7610    25.6410 hc         1 JZC       0.051950
     56 H22         71.6600    16.8020    25.6770 hc         1 JZC       0.043200
     57 H22A        71.0320    15.8310    27.0060 hc         1 JZC       0.043200
     58 H23         73.5060    16.3730    27.2710 hc         1 JZC       0.051950
     59 H23A        73.1930    14.6390    27.2440 hc         1 JZC       0.051950
     60 H24         75.1430    15.1610    25.7980 h1         1 JZC       0.053450
     61 H24A        74.1930    16.3320    24.8740 h1         1 JZC       0.053450
     62 O4          65.1040    11.6720    25.0840 oh         1 JZC      -0.553100
@<TRIPOS>BOND
     1     1     4 ar  
     2     1    12 ar  
     3     1    32 1   
     4     2    11 1   
     5     2    16 2   
     6     3    15 1   
     7     3    18 1   
     8     4     7 ar  
     9     4     8 1   
    10     5    26 1   
    11     5    27 1   
    12     5    31 1   
    13     6    15 2   
    14     7     9 ar  
    15     7    33 1   
    16     8    34 1   
    17     9    10 ar  
    18     9    14 1   
    19    10    12 ar  
    20    10    15 1   
    21    11    25 1   
    22    12    62 1   
    23    13    26 2   
    24    14    16 1   
    25    14    36 1   
    26    14    37 1   
    27    16    17 1   
    28    17    23 2   
    29    17    38 1   
    30    18    19 1   
    31    18    39 1   
    32    18    40 1   
    33    19    20 1   
    34    19    41 1   
    35    19    42 1   
    36    20    21 2   
    37    20    43 1   
    38    21    22 1   
    39    21    44 1   
    40    22    24 1   
    41    22    45 1   
    42    22    46 1   
    43    23    24 1   
    44    23    47 1   
    45    24    48 1   
    46    24    49 1   
    47    25    26 1   
    48    25    50 1   
    49    25    51 1   
    50    27    28 1   
    51    27    52 1   
    52    27    53 1   
    53    28    29 1   
    54    28    54 1   
    55    28    55 1   
    56    29    30 1   
    57    29    56 1   
    58    29    57 1   
    59    30    31 1   
    60    30    58 1   
    61    30    59 1   
    62    31    60 1   
    63    31    61 1   
    64    35    62 1   
@<TRIPOS>SUBSTRUCTURE
     1 JZC         1 TEMP              0 ****  ****    0 ROOT
