@<TRIPOS>MOLECULE
JZD
   85    88     1     0     0
SMALL
No Charge or Current Charge


@<TRIPOS>ATOM
      1 OAA        -11.2910    -3.0840    -0.1600 o          1 JZD      -0.704750
      2 OAB         11.3120    -3.0120    -0.3580 o          1 JZD      -0.704750
      3 OAC        -11.1570    -2.3740    -2.1890 o          1 JZD      -0.704750
      4 OAD         10.9710    -2.6670     1.7400 o          1 JZD      -0.704750
      5 ClAE        -8.4040     1.0900     3.2480 cl         1 JZD      -0.213500
      6 ClAF        -8.9640     1.4890    -2.2390 cl         1 JZD      -0.213500
      7 CAI        -15.8570    -1.1720    -0.9030 ca         1 JZD      -0.121500
      8 CAJ         15.7560    -1.2740     1.1540 ca         1 JZD      -0.121500
      9 CAK        -15.4480    -2.1010    -1.8690 ca         1 JZD      -0.155000
     10 CAL         15.2690    -2.3570     1.8980 ca         1 JZD      -0.155000
     11 CAM        -14.9130    -0.6280    -0.0170 ca         1 JZD      -0.182000
     12 CAN         14.8960    -0.5800     0.2880 ca         1 JZD      -0.182000
     13 CAO        -14.1030    -2.4960    -1.9370 ca         1 JZD      -0.076000
     14 CAP         13.9280    -2.7530     1.7630 ca         1 JZD      -0.076000
     15 CAQ        -10.6300     0.3270     1.8550 ca         1 JZD      -0.160750
     16 CAR        -10.8780     0.5050    -0.5510 ca         1 JZD      -0.160750
     17 CAS         10.8040     0.7040    -1.8010 ca         1 JZD      -0.160750
     18 CAT         10.8130     0.4540     0.6110 ca         1 JZD      -0.160750
     19 CAU          0.0140     1.7460    -0.0220 c3         1 JZD      -0.074400
     20 CAV         -1.2640     0.8860     0.0870 c3         1 JZD      -0.075400
     21 CAW          1.3080     0.9040    -0.0610 c3         1 JZD      -0.075400
     22 CAX         -2.5580     1.7280     0.1250 c3         1 JZD      -0.073400
     23 CAY          2.5850     1.7650    -0.1700 c3         1 JZD      -0.073400
     24 CAZ         -3.8360     0.8680     0.2340 c3         1 JZD      -0.074900
     25 CBA          3.8800     0.9240    -0.2080 c3         1 JZD      -0.074900
     26 CBB         -5.1300     1.7100     0.2720 c3         1 JZD      -0.078400
     27 CBC          5.1570     1.7850    -0.3180 c3         1 JZD      -0.078400
     28 CBD         -6.4030     0.8500     0.3820 c3         1 JZD       0.159600
     29 CBE          6.4470     0.9440    -0.3550 c3         1 JZD       0.159600
     30 OBH         -7.5300     1.7400     0.4070 os         1 JZD      -0.351600
     31 OBI          7.5560     1.8500    -0.4610 os         1 JZD      -0.351600
     32 CBJ        -11.7390    -2.4670    -1.1170 c          1 JZD       0.711600
     33 CBK         11.6560    -2.5730     0.7310 c          1 JZD       0.711600
     34 CBL        -11.3970     0.1330     0.6980 ca         1 JZD       0.392000
     35 CBM         11.4570     0.3060    -0.6270 ca         1 JZD       0.392000
     36 CBN         -9.3340     0.8590     1.7650 ca         1 JZD       0.153500
     37 CBO         -9.5850     1.0390    -0.6500 ca         1 JZD       0.153500
     38 CBP          9.4980     1.2160    -1.7470 ca         1 JZD       0.153500
     39 CBQ          9.5080     0.9650     0.6750 ca         1 JZD       0.153500
     40 CBR        -13.5580    -0.9970    -0.0890 ca         1 JZD       0.299000
     41 CBS         13.5450    -0.9510     0.1610 ca         1 JZD       0.299000
     42 CBT        -13.1490    -1.9580    -1.0450 ca         1 JZD      -0.145100
     43 CBU         13.0590    -2.0640     0.8880 ca         1 JZD      -0.145100
     44 CBV         -8.7990     1.2110     0.5070 ca         1 JZD       0.041600
     45 CBW          8.8360     1.3410    -0.5080 ca         1 JZD       0.041600
     46 HAI        -16.9000    -0.8700    -0.8430 ha         1 JZD       0.085000
     47 HAJ         16.7960    -0.9700     1.2510 ha         1 JZD       0.085000
     48 HAK        -16.1750    -2.5250    -2.5580 ha         1 JZD       0.089500
     49 HAL         15.9300    -2.8980     2.5710 ha         1 JZD       0.089500
     50 HAM        -15.2380     0.1010     0.7200 ha         1 JZD       0.085000
     51 HAN         15.2820     0.2660    -0.2740 ha         1 JZD       0.085000
     52 HAO        -13.7970    -3.2340    -2.6760 ha         1 JZD       0.126000
     53 HAP         13.5620    -3.6080     2.3280 ha         1 JZD       0.126000
     54 HAQ        -11.0330     0.0580     2.8260 ha         1 JZD       0.139500
     55 HAR        -11.4790     0.3900    -1.4460 ha         1 JZD       0.139500
     56 HAS         11.3020     0.6060    -2.7600 ha         1 JZD       0.139500
     57 HAT         11.3260     0.1850     1.5270 ha         1 JZD       0.139500
     58 HAU         -0.0430     2.3610    -0.9290 hc         1 JZD       0.034200
     59 HAUA         0.0580     2.4350     0.8310 hc         1 JZD       0.034200
     60 HAV         -1.3080     0.1960    -0.7660 hc         1 JZD       0.038450
     61 HAVA        -1.2080     0.2700     0.9940 hc         1 JZD       0.038450
     62 HAW          1.3650     0.2890     0.8460 hc         1 JZD       0.038450
     63 HAX         -2.5140     2.4170     0.9780 hc         1 JZD       0.034700
     64 HAXA        -2.6140     2.3430    -0.7820 hc         1 JZD       0.034700
     65 HAY          2.5290     2.3800    -1.0770 hc         1 JZD       0.034700
     66 HAZ         -3.8810     0.1780    -0.6190 hc         1 JZD       0.040950
     67 HAZA        -3.7800     0.2520     1.1410 hc         1 JZD       0.040950
     68 HBA          3.9370     0.3090     0.6990 hc         1 JZD       0.040950
     69 HBAA         3.8370     0.2340    -1.0610 hc         1 JZD       0.040950
     70 HBB         -5.0890     2.3980     1.1270 hc         1 JZD       0.046700
     71 HBBA        -5.1900     2.3240    -0.6350 hc         1 JZD       0.046700
     72 HBC          5.1040     2.3980    -1.2260 hc         1 JZD       0.046700
     73 HBCA         5.2050     2.4730     0.5360 hc         1 JZD       0.046700
     74 HBD         -6.4670     0.1730    -0.4800 h1         1 JZD       0.039950
     75 HBDA        -6.3630     0.2450     1.2960 h1         1 JZD       0.039950
     76 HBE          6.5210     0.3390     0.5580 h1         1 JZD       0.039950
     77 HBEA         6.4210     0.2660    -1.2190 h1         1 JZD       0.039950
     78 HNBF       -13.1190    -0.1840     1.7190 hn         1 JZD       0.475000
     79 HNBG        13.2750     0.1680    -1.5120 hn         1 JZD       0.475000
     80 H37          1.2640     0.2150    -0.9130 hc         1 JZD       0.038450
     81 H38          2.6290     2.4550     0.6830 hc         1 JZD       0.034700
     82 ClAH         8.7440     1.1500     2.2560 cl         1 JZD      -0.213500
     83 NBG         12.7610    -0.1830    -0.7040 nu         1 JZD      -0.958000
     84 NBF        -12.6890    -0.3800     0.8160 nu         1 JZD      -0.958000
     85 ClAG         8.7020     1.6900    -3.2480 cl         1 JZD      -0.213500
@<TRIPOS>BOND
     1     1    32 1   
     2     2    33 1   
     3     3    32 1   
     4     4    33 1   
     5     5    36 1   
     6     6    37 1   
     7     7     9 ar  
     8     7    11 ar  
     9     7    46 1   
    10     8    10 ar  
    11     8    12 ar  
    12     8    47 1   
    13     9    13 ar  
    14     9    48 1   
    15    10    14 ar  
    16    10    49 1   
    17    11    40 ar  
    18    11    50 1   
    19    12    41 ar  
    20    12    51 1   
    21    13    42 ar  
    22    13    52 1   
    23    14    43 ar  
    24    14    53 1   
    25    15    34 ar  
    26    15    36 ar  
    27    15    54 1   
    28    16    34 ar  
    29    16    37 ar  
    30    16    55 1   
    31    17    35 ar  
    32    17    38 ar  
    33    17    56 1   
    34    18    35 ar  
    35    18    39 ar  
    36    18    57 1   
    37    19    20 1   
    38    19    21 1   
    39    19    58 1   
    40    19    59 1   
    41    20    22 1   
    42    20    60 1   
    43    20    61 1   
    44    21    23 1   
    45    21    62 1   
    46    21    80 1   
    47    22    24 1   
    48    22    63 1   
    49    22    64 1   
    50    23    25 1   
    51    23    65 1   
    52    23    81 1   
    53    24    26 1   
    54    24    66 1   
    55    24    67 1   
    56    25    27 1   
    57    25    68 1   
    58    25    69 1   
    59    26    28 1   
    60    26    70 1   
    61    26    71 1   
    62    27    29 1   
    63    27    72 1   
    64    27    73 1   
    65    28    30 1   
    66    28    74 1   
    67    28    75 1   
    68    29    31 1   
    69    29    76 1   
    70    29    77 1   
    71    30    44 1   
    72    31    45 1   
    73    32    42 1   
    74    33    43 1   
    75    34    84 1   
    76    35    83 1   
    77    36    44 ar  
    78    37    44 ar  
    79    38    45 ar  
    80    38    85 1   
    81    39    45 ar  
    82    39    82 1   
    83    40    42 ar  
    84    40    84 1   
    85    41    43 ar  
    86    41    83 1   
    87    78    84 1   
    88    79    83 1   
@<TRIPOS>SUBSTRUCTURE
     1 JZD         1 TEMP              0 ****  ****    0 ROOT
