@<TRIPOS>MOLECULE
JZD
   85    88     1     0     0
SMALL
abcg2


@<TRIPOS>ATOM
      1 OAA        -10.9840    -3.0370     0.0470 o          1 JZD      -0.704750
      2 OAB         10.9860    -2.8250    -0.5510 o          1 JZD      -0.704750
      3 OAC        -11.0260    -2.7530    -2.1650 o          1 JZD      -0.704750
      4 OAD         10.6010    -3.0710     1.6320 o          1 JZD      -0.704750
      5 CLAE        -8.1230     1.2120     3.1680 cl         1 JZD      -0.213500
      6 CLAF        -8.8550     1.2070    -2.1420 cl         1 JZD      -0.213500
      7 CAI        -15.5280    -1.1300    -0.6700 ca         1 JZD      -0.121500
      8 CAJ         15.3130    -1.3720     1.4370 ca         1 JZD      -0.121500
      9 CAK        -15.1520    -1.9380    -1.7350 ca         1 JZD      -0.155000
     10 CAL         14.7400    -2.3960     2.1800 ca         1 JZD      -0.155000
     11 CAM        -14.5740    -0.7120     0.2430 ca         1 JZD      -0.182000
     12 CAN         14.5520    -0.6950     0.4990 ca         1 JZD      -0.182000
     13 CAO        -13.8290    -2.3390    -1.8470 ca         1 JZD      -0.076000
     14 CAP         13.4190    -2.7450     1.9430 ca         1 JZD      -0.076000
     15 CAQ        -10.3110     0.2050     1.9730 ca         1 JZD      -0.160750
     16 CAR        -10.6460     0.2110    -0.4060 ca         1 JZD      -0.160750
     17 CAS         10.6530     0.7640    -1.7020 ca         1 JZD      -0.160750
     18 CAT         10.5760     0.2310     0.6400 ca         1 JZD      -0.160750
     19 CAU          0.0300     1.8440    -0.2070 c3         1 JZD      -0.074400
     20 CAV         -1.2300     0.9860    -0.2120 c3         1 JZD      -0.075400
     21 CAW          1.3120     1.0350    -0.3630 c3         1 JZD      -0.075400
     22 CAX         -2.5090     1.8000    -0.0630 c3         1 JZD      -0.073400
     23 CAY          2.5710     1.8910    -0.2940 c3         1 JZD      -0.073400
     24 CAZ         -3.7670     0.9420    -0.0160 c3         1 JZD      -0.074900
     25 CBA          3.8530     1.0840    -0.4600 c3         1 JZD      -0.074900
     26 CBB         -5.0350     1.7750     0.1320 c3         1 JZD      -0.078400
     27 CBC          5.1060     1.9410    -0.3220 c3         1 JZD      -0.078400
     28 CBD         -6.2690     0.9050     0.2240 c3         1 JZD       0.159600
     29 CBE          6.3650     1.1230    -0.5030 c3         1 JZD       0.159600
     30 OBH         -7.4110     1.7630     0.3610 os         1 JZD      -0.351600
     31 OBI          7.4940     1.9830    -0.3030 os         1 JZD      -0.351600
     32 CBJ        -11.4890    -2.6370    -1.0150 c          1 JZD       0.711600
     33 CBK         11.2780    -2.7120     0.6510 c          1 JZD       0.711600
     34 CBL        -11.1130    -0.1120     0.8710 ca         1 JZD       0.392000
     35 CBM         11.2580     0.1910    -0.5790 ca         1 JZD       0.392000
     36 CBN         -9.0840     0.8120     1.7880 ca         1 JZD       0.153500
     37 CBO         -9.4060     0.8030    -0.5530 ca         1 JZD       0.153500
     38 CBP          9.4030     1.3430    -1.5980 ca         1 JZD       0.153500
     39 CBQ          9.3190     0.8020     0.7040 ca         1 JZD       0.153500
     40 CBR        -13.2440    -1.1290     0.1400 ca         1 JZD       0.299000
     41 CBS         13.2250    -1.0570     0.2500 ca         1 JZD       0.299000
     42 CBT        -12.8640    -1.9850    -0.9050 ca         1 JZD      -0.145100
     43 CBU         12.6510    -2.1230     0.9600 ca         1 JZD      -0.145100
     44 CBV         -8.5920     1.1350     0.5260 ca         1 JZD       0.041600
     45 CBW          8.6990     1.3850    -0.3980 ca         1 JZD       0.041600
     46 HAI        -16.5540    -0.8040    -0.5610 ha         1 JZD       0.085000
     47 HAJ         16.3420    -1.0810     1.6030 ha         1 JZD       0.085000
     48 HAK        -15.8820    -2.2540    -2.4690 ha         1 JZD       0.089500
     49 HAL         15.3170    -2.9160     2.9330 ha         1 JZD       0.089500
     50 HAM        -14.8560    -0.0450     1.0500 ha         1 JZD       0.085000
     51 HAN         14.9840     0.1350    -0.0480 ha         1 JZD       0.085000
     52 HAO        -13.5340    -2.9740    -2.6720 ha         1 JZD       0.126000
     53 HAP         12.9700    -3.5480     2.5140 ha         1 JZD       0.126000
     54 HAQ        -10.6500    -0.0260     2.9750 ha         1 JZD       0.139500
     55 HAR        -11.2370     0.0070    -1.2870 ha         1 JZD       0.139500
     56 HAS         11.1580     0.7510    -2.6600 ha         1 JZD       0.139500
     57 HAT         11.0110    -0.1780     1.5400 ha         1 JZD       0.139500
     58 HAU         -0.0330     2.5850    -1.0120 hc         1 JZD       0.034200
     59 HAUA         0.0720     2.4160     0.7270 hc         1 JZD       0.034200
     60 HAV         -1.2720     0.4060    -1.1400 hc         1 JZD       0.038450
     61 HAVA        -1.1690     0.2530     0.6010 hc         1 JZD       0.038450
     62 HAW          1.3550     0.2710     0.4210 hc         1 JZD       0.038450
     63 HAX         -2.4500     2.4030     0.8500 hc         1 JZD       0.034700
     64 HAXA        -2.5850     2.5130    -0.8910 hc         1 JZD       0.034700
     65 HAY          2.5270     2.6660    -1.0680 hc         1 JZD       0.034700
     66 HAZ         -3.8280     0.3370    -0.9280 hc         1 JZD       0.040950
     67 HAZA        -3.6900     0.2330     0.8150 hc         1 JZD       0.040950
     68 HBA          3.8740     0.2820     0.2860 hc         1 JZD       0.040950
     69 HBAA         3.8470     0.5920    -1.4390 hc         1 JZD       0.040950
     70 HBB         -4.9640     2.3950     1.0300 hc         1 JZD       0.046700
     71 HBBA        -5.1310     2.4540    -0.7210 hc         1 JZD       0.046700
     72 HBC          5.0870     2.7480    -1.0600 hc         1 JZD       0.046700
     73 HBCA         5.1200     2.4100     0.6670 hc         1 JZD       0.046700
     74 HBD         -6.3750     0.2870    -0.6750 h1         1 JZD       0.039950
     75 HBDA        -6.2000     0.2350     1.0860 h1         1 JZD       0.039950
     76 HBE          6.3930     0.3000     0.2200 h1         1 JZD       0.039950
     77 HBEA         6.4020     0.6880    -1.5080 h1         1 JZD       0.039950
     78 HNBF       -12.7390    -0.4860     2.0110 hn         1 JZD       0.475000
     79 HNBG        13.0750     0.0570    -1.4590 hn         1 JZD       0.475000
     80 H37          1.2880     0.4940    -1.3150 hc         1 JZD       0.038450
     81 H38          2.5950     2.4210     0.6650 hc         1 JZD       0.034700
     82 CLAH         8.4960     0.8510     2.2230 cl         1 JZD      -0.213500
     83 NBG         12.5230    -0.3300    -0.7100 nu         1 JZD      -0.958000
     84 NBF        -12.3460    -0.6680     1.1010 nu         1 JZD      -0.958000
     85 CLAG         8.6860     2.0580    -2.9960 cl         1 JZD      -0.213500
@<TRIPOS>BOND
     1     1    32 1   
     2     2    33 1   
     3     3    32 1   
     4     4    33 1   
     5     5    36 1   
     6     6    37 1   
     7     7     9 ar  
     8     7    11 ar  
     9     7    46 1   
    10     8    10 ar  
    11     8    12 ar  
    12     8    47 1   
    13     9    13 ar  
    14     9    48 1   
    15    10    14 ar  
    16    10    49 1   
    17    11    40 ar  
    18    11    50 1   
    19    12    41 ar  
    20    12    51 1   
    21    13    42 ar  
    22    13    52 1   
    23    14    43 ar  
    24    14    53 1   
    25    15    34 ar  
    26    15    36 ar  
    27    15    54 1   
    28    16    34 ar  
    29    16    37 ar  
    30    16    55 1   
    31    17    35 ar  
    32    17    38 ar  
    33    17    56 1   
    34    18    35 ar  
    35    18    39 ar  
    36    18    57 1   
    37    19    20 1   
    38    19    21 1   
    39    19    58 1   
    40    19    59 1   
    41    20    22 1   
    42    20    60 1   
    43    20    61 1   
    44    21    23 1   
    45    21    62 1   
    46    21    80 1   
    47    22    24 1   
    48    22    63 1   
    49    22    64 1   
    50    23    25 1   
    51    23    65 1   
    52    23    81 1   
    53    24    26 1   
    54    24    66 1   
    55    24    67 1   
    56    25    27 1   
    57    25    68 1   
    58    25    69 1   
    59    26    28 1   
    60    26    70 1   
    61    26    71 1   
    62    27    29 1   
    63    27    72 1   
    64    27    73 1   
    65    28    30 1   
    66    28    74 1   
    67    28    75 1   
    68    29    31 1   
    69    29    76 1   
    70    29    77 1   
    71    30    44 1   
    72    31    45 1   
    73    32    42 1   
    74    33    43 1   
    75    34    84 1   
    76    35    83 1   
    77    36    44 ar  
    78    37    44 ar  
    79    38    45 ar  
    80    38    85 1   
    81    39    45 ar  
    82    39    82 1   
    83    40    42 ar  
    84    40    84 1   
    85    41    43 ar  
    86    41    83 1   
    87    78    84 1   
    88    79    83 1   
@<TRIPOS>SUBSTRUCTURE
     1 JZD         1 TEMP              0 ****  ****    0 ROOT
