@<TRIPOS>MOLECULE
JZE
   73    76     1     0     0
SMALL
No Charge or Current Charge


@<TRIPOS>ATOM
      1 C1         -12.1000    -2.8020     0.7210 c          1 JZE       0.721600
      2 N1         -10.1320    -0.6600     0.4980 nu         1 JZE      -0.995000
      3 O1         -11.4440    -2.6770     1.7480 o          1 JZE      -0.709250
      4 Cl1         -5.9010     0.6910     3.0700 cl         1 JZE      -0.212250
      5 C2         -12.2610    -1.6100    -0.1970 ca         1 JZE      -0.193600
      6 N2          10.1440    -0.6230    -0.5330 nu         1 JZE      -0.995000
      7 O2         -12.6580    -3.8450     0.4140 o          1 JZE      -0.709250
      8 Cl2         -6.3280     1.2990    -2.4080 cl         1 JZE      -0.212250
      9 C3         -13.4200    -1.5130    -1.0040 ca         1 JZE      -0.057000
     10 O3          -4.9680     1.4710     0.2850 os         1 JZE      -0.345100
     11 Cl3          5.9110     0.8780    -3.0170 cl         1 JZE      -0.212250
     12 C4         -13.6090    -0.4160    -1.8600 ca         1 JZE      -0.180000
     13 O4           4.9800     1.4880    -0.1890 os         1 JZE      -0.345100
     14 Cl4          6.3420     1.1540     2.4880 cl         1 JZE      -0.212250
     15 C5         -12.6490     0.6020    -1.9190 ca         1 JZE      -0.098500
     16 O5          12.6670    -3.8110    -0.6400 o          1 JZE      -0.709250
     17 C6         -11.4940     0.5140    -1.1290 ca         1 JZE      -0.199500
     18 O6          11.4540    -2.5630    -1.9020 o          1 JZE      -0.709250
     19 C7         -11.2820    -0.5920    -0.2830 ca         1 JZE       0.326000
     20 C8          -8.8540    -0.1120     0.4230 ca         1 JZE       0.372000
     21 C9          -8.1010     0.0040     1.5990 ca         1 JZE      -0.175250
     22 C10         -6.8030     0.5370     1.5610 ca         1 JZE       0.145250
     23 C11         -8.2940     0.2810    -0.8020 ca         1 JZE      -0.175250
     24 C12         -6.9970     0.8140    -0.8500 ca         1 JZE       0.145250
     25 C13         -6.2410     0.9460     0.3330 ca         1 JZE       0.038100
     26 C14         -3.8480     0.5760     0.2060 c3         1 JZE       0.159600
     27 C15         -2.5670     1.4310     0.1700 c3         1 JZE      -0.078900
     28 C16         -1.2800     0.5810     0.0830 c3         1 JZE      -0.075400
     29 C17          0.0060     1.4350     0.0470 c3         1 JZE      -0.073400
     30 C18          1.2930     0.5860    -0.0400 c3         1 JZE      -0.075400
     31 C19          2.5790     1.4390    -0.0770 c3         1 JZE      -0.078900
     32 C20          3.8610     0.5890    -0.1640 c3         1 JZE       0.159600
     33 C21          6.2530     0.9670    -0.2700 ca         1 JZE       0.038100
     34 C22          6.8140     0.6340    -1.5210 ca         1 JZE       0.145250
     35 C23          8.1120     0.1040    -1.5910 ca         1 JZE      -0.175250
     36 C24          7.0100     0.7650     0.9020 ca         1 JZE       0.145250
     37 C25          8.3070     0.2360     0.8220 ca         1 JZE      -0.175250
     38 C26          8.8660    -0.0820    -0.4250 ca         1 JZE       0.372000
     39 C27         11.2940    -0.6050     0.2510 ca         1 JZE       0.326000
     40 C28         11.5070     0.4480     1.1620 ca         1 JZE      -0.199500
     41 C29         12.6620     0.4870     1.9570 ca         1 JZE      -0.098500
     42 C30         13.6200    -0.5270     1.8370 ca         1 JZE      -0.180000
     43 C31         13.4310    -1.5690     0.9160 ca         1 JZE      -0.057000
     44 C32         12.2720    -1.6170     0.1040 ca         1 JZE      -0.193600
     45 C33         12.1100    -2.7510    -0.8840 c          1 JZE       0.721600
     46 HN1        -10.2620    -1.3310     1.2710 hn         1 JZE       0.574500
     47 HN2         10.2740    -1.2470    -1.3450 hn         1 JZE       0.574500
     48 H3         -14.1850    -2.2860    -0.9610 ha         1 JZE       0.128000
     49 H4         -14.5070    -0.3520    -2.4700 ha         1 JZE       0.090000
     50 H5         -12.8020     1.4600    -2.5710 ha         1 JZE       0.085000
     51 H6         -10.7720     1.3230    -1.1650 ha         1 JZE       0.102000
     52 H9          -8.5240    -0.3060     2.5490 ha         1 JZE       0.141500
     53 H11         -8.8510     0.1570    -1.7240 ha         1 JZE       0.141500
     54 H14         -3.8230    -0.0920     1.0770 h1         1 JZE       0.033450
     55 H14A        -3.9090    -0.0380    -0.7020 h1         1 JZE       0.033450
     56 H15         -2.6140     2.1080    -0.6910 hc         1 JZE       0.050200
     57 H15A        -2.5290     2.0550     1.0720 hc         1 JZE       0.050200
     58 H16         -1.2380    -0.0980     0.9440 hc         1 JZE       0.038700
     59 H16A        -1.3230    -0.0450    -0.8170 hc         1 JZE       0.038700
     60 H17         -0.0370     2.1140    -0.8140 hc         1 JZE       0.037700
     61 H17A         0.0480     2.0610     0.9470 hc         1 JZE       0.037700
     62 H18          1.3360    -0.0930     0.8210 hc         1 JZE       0.038700
     63 H18A         1.2510    -0.0410    -0.9400 hc         1 JZE       0.038700
     64 H19          2.5400     2.1160    -0.9390 hc         1 JZE       0.050200
     65 H19A         2.6260     2.0630     0.8240 hc         1 JZE       0.050200
     66 H20          3.8350    -0.0260    -1.0730 h1         1 JZE       0.033450
     67 H20A         3.9220    -0.0780     0.7050 h1         1 JZE       0.033450
     68 H23          8.5360    -0.1480    -2.5580 ha         1 JZE       0.141500
     69 H25          8.8650     0.0570     1.7340 ha         1 JZE       0.141500
     70 H28         10.7860     1.2550     1.2470 ha         1 JZE       0.102000
     71 H29         12.8150     1.3040     2.6590 ha         1 JZE       0.085000
     72 H30         14.5180    -0.5010     2.4500 ha         1 JZE       0.090000
     73 H31         14.1950    -2.3400     0.8270 ha         1 JZE       0.128000
@<TRIPOS>BOND
     1     1     3 1   
     2     1     5 1   
     3     1     7 1   
     4     2    19 1   
     5     2    20 1   
     6     2    46 1   
     7     4    22 1   
     8     5     9 ar  
     9     5    19 ar  
    10     6    38 1   
    11     6    39 1   
    12     6    47 1   
    13     8    24 1   
    14     9    12 ar  
    15     9    48 1   
    16    10    25 1   
    17    10    26 1   
    18    11    34 1   
    19    12    15 ar  
    20    12    49 1   
    21    13    32 1   
    22    13    33 1   
    23    14    36 1   
    24    15    17 ar  
    25    15    50 1   
    26    16    45 1   
    27    17    19 ar  
    28    17    51 1   
    29    18    45 1   
    30    20    21 ar  
    31    20    23 ar  
    32    21    22 ar  
    33    21    52 1   
    34    22    25 ar  
    35    23    24 ar  
    36    23    53 1   
    37    24    25 ar  
    38    26    27 1   
    39    26    54 1   
    40    26    55 1   
    41    27    28 1   
    42    27    56 1   
    43    27    57 1   
    44    28    29 1   
    45    28    58 1   
    46    28    59 1   
    47    29    30 1   
    48    29    60 1   
    49    29    61 1   
    50    30    31 1   
    51    30    62 1   
    52    30    63 1   
    53    31    32 1   
    54    31    64 1   
    55    31    65 1   
    56    32    66 1   
    57    32    67 1   
    58    33    34 ar  
    59    33    36 ar  
    60    34    35 ar  
    61    35    38 ar  
    62    35    68 1   
    63    36    37 ar  
    64    37    38 ar  
    65    37    69 1   
    66    39    40 ar  
    67    39    44 ar  
    68    40    41 ar  
    69    40    70 1   
    70    41    42 ar  
    71    41    71 1   
    72    42    43 ar  
    73    42    72 1   
    74    43    44 ar  
    75    43    73 1   
    76    44    45 1   
@<TRIPOS>SUBSTRUCTURE
     1 JZE         1 TEMP              0 ****  ****    0 ROOT
