@<TRIPOS>MOLECULE
JZE
   73    76     1     0     0
SMALL
abcg2


@<TRIPOS>ATOM
      1 C1         -11.6830    -3.0680     0.6190 c          1 JZE       0.721600
      2 N1          -9.8520    -0.8040     0.6060 nu         1 JZE      -0.995000
      3 O1         -10.8270    -3.0010     1.5420 o          1 JZE      -0.709250
      4 CL1         -5.8120     0.8040     3.1950 cl         1 JZE      -0.212250
      5 C2         -11.7930    -1.8790    -0.3230 ca         1 JZE      -0.193600
      6 N2           9.8440    -0.7740    -0.7110 nu         1 JZE      -0.995000
      7 O2         -12.4500    -4.0220     0.4280 o          1 JZE      -0.709250
      8 CL2         -6.1360     1.4700    -2.1150 cl         1 JZE      -0.212250
      9 C3         -12.8500    -1.8460    -1.2300 ca         1 JZE      -0.057000
     10 O3          -4.9050     1.7220     0.5430 os         1 JZE      -0.345100
     11 CL3          5.7320     0.9890    -3.0800 cl         1 JZE      -0.212250
     12 C4         -13.0480    -0.7850    -2.0990 ca         1 JZE      -0.180000
     13 O4           4.9120     1.7600    -0.3530 os         1 JZE      -0.345100
     14 CL4          6.2290     1.3640     2.2450 cl         1 JZE      -0.212250
     15 C5         -12.1710     0.2910    -2.0510 ca         1 JZE      -0.098500
     16 O5          12.3920    -4.0390    -0.6740 o          1 JZE      -0.709250
     17 C6         -11.1100     0.2920    -1.1640 ca         1 JZE      -0.199500
     18 O6          10.7670    -2.9600    -1.7310 o          1 JZE      -0.709250
     19 C7         -10.8870    -0.7920    -0.3050 ca         1 JZE       0.326000
     20 C8          -8.6360    -0.1630     0.5350 ca         1 JZE       0.372000
     21 C9          -7.9170     0.0030     1.7250 ca         1 JZE      -0.175250
     22 C10         -6.6710     0.5980     1.7090 ca         1 JZE       0.145250
     23 C11         -8.0590     0.2890    -0.6570 ca         1 JZE      -0.175250
     24 C12         -6.8190     0.9000    -0.6330 ca         1 JZE       0.145250
     25 C13         -6.0930     1.0850     0.5390 ca         1 JZE       0.038100
     26 C14         -3.7580     0.8770     0.3850 c3         1 JZE       0.159600
     27 C15         -2.5240     1.7500     0.3320 c3         1 JZE      -0.078900
     28 C16         -1.2570     0.9150     0.2000 c3         1 JZE      -0.075400
     29 C17          0.0050     1.7640     0.1190 c3         1 JZE      -0.073400
     30 C18          1.2720     0.9250     0.0030 c3         1 JZE      -0.075400
     31 C19          2.5340     1.7720    -0.1060 c3         1 JZE      -0.078900
     32 C20          3.7690     0.9070    -0.2130 c3         1 JZE       0.159600
     33 C21          6.0980     1.1230    -0.4230 ca         1 JZE       0.038100
     34 C22          6.6360     0.6980    -1.6360 ca         1 JZE       0.145250
     35 C23          7.8770     0.0990    -1.7250 ca         1 JZE      -0.175250
     36 C24          6.8610     0.8730     0.7130 ca         1 JZE       0.145250
     37 C25          8.0980     0.2570     0.6630 ca         1 JZE      -0.175250
     38 C26          8.6330    -0.1330    -0.5690 ca         1 JZE       0.372000
     39 C27         10.9030    -0.8030     0.1720 ca         1 JZE       0.326000
     40 C28         11.1620     0.2560     1.0530 ca         1 JZE      -0.199500
     41 C29         12.2460     0.2180     1.9100 ca         1 JZE      -0.098500
     42 C30         13.1100    -0.8700     1.9070 ca         1 JZE      -0.180000
     43 C31         12.8740    -1.9050     1.0180 ca         1 JZE      -0.057000
     44 C32         11.7930    -1.9020     0.1390 ca         1 JZE      -0.193600
     45 C33         11.6400    -3.0660    -0.8280 c          1 JZE       0.721600
     46 HN1         -9.9630    -1.5870     1.2680 hn         1 JZE       0.574500
     47 HN2          9.9250    -1.5400    -1.3960 hn         1 JZE       0.574500
     48 H3         -13.5330    -2.6840    -1.2460 ha         1 JZE       0.128000
     49 H4         -13.8780    -0.7910    -2.7920 ha         1 JZE       0.090000
     50 H5         -12.3180     1.1460    -2.6990 ha         1 JZE       0.085000
     51 H6         -10.4660     1.1610    -1.1210 ha         1 JZE       0.102000
     52 H9          -8.3410    -0.3330     2.6620 ha         1 JZE       0.141500
     53 H11         -8.5550     0.1430    -1.6060 ha         1 JZE       0.141500
     54 H14         -3.6940     0.1760     1.2230 h1         1 JZE       0.033450
     55 H14A        -3.8490     0.2890    -0.5350 h1         1 JZE       0.033450
     56 H15         -2.6030     2.4390    -0.5150 hc         1 JZE       0.050200
     57 H15A        -2.4700     2.3610     1.2380 hc         1 JZE       0.050200
     58 H16         -1.1790     0.2310     1.0520 hc         1 JZE       0.038700
     59 H16A        -1.3240     0.2830    -0.6920 hc         1 JZE       0.038700
     60 H17         -0.0660     2.4390    -0.7410 hc         1 JZE       0.037700
     61 H17A         0.0720     2.4050     1.0050 hc         1 JZE       0.037700
     62 H18          1.3480     0.2630     0.8720 hc         1 JZE       0.038700
     63 H18A         1.1930     0.2720    -0.8730 hc         1 JZE       0.038700
     64 H19          2.4660     2.4210    -0.9850 hc         1 JZE       0.050200
     65 H19A         2.6190     2.4250     0.7680 hc         1 JZE       0.050200
     66 H20          3.6950     0.2400    -1.0780 h1         1 JZE       0.033450
     67 H20A         3.8770     0.2810     0.6800 h1         1 JZE       0.033450
     68 H23          8.2690    -0.1880    -2.6920 ha         1 JZE       0.141500
     69 H25          8.6260     0.0620     1.5850 ha         1 JZE       0.141500
     70 H28         10.5280     1.1330     1.0480 ha         1 JZE       0.102000
     71 H29         12.4220     1.0540     2.5760 ha         1 JZE       0.085000
     72 H30         13.9590    -0.9030     2.5770 ha         1 JZE       0.090000
     73 H31         13.5460    -2.7530     0.9930 ha         1 JZE       0.128000
@<TRIPOS>BOND
     1     1     3 1   
     2     1     5 1   
     3     1     7 1   
     4     2    19 1   
     5     2    20 1   
     6     2    46 1   
     7     4    22 1   
     8     5     9 ar  
     9     5    19 ar  
    10     6    38 1   
    11     6    39 1   
    12     6    47 1   
    13     8    24 1   
    14     9    12 ar  
    15     9    48 1   
    16    10    25 1   
    17    10    26 1   
    18    11    34 1   
    19    12    15 ar  
    20    12    49 1   
    21    13    32 1   
    22    13    33 1   
    23    14    36 1   
    24    15    17 ar  
    25    15    50 1   
    26    16    45 1   
    27    17    19 ar  
    28    17    51 1   
    29    18    45 1   
    30    20    21 ar  
    31    20    23 ar  
    32    21    22 ar  
    33    21    52 1   
    34    22    25 ar  
    35    23    24 ar  
    36    23    53 1   
    37    24    25 ar  
    38    26    27 1   
    39    26    54 1   
    40    26    55 1   
    41    27    28 1   
    42    27    56 1   
    43    27    57 1   
    44    28    29 1   
    45    28    58 1   
    46    28    59 1   
    47    29    30 1   
    48    29    60 1   
    49    29    61 1   
    50    30    31 1   
    51    30    62 1   
    52    30    63 1   
    53    31    32 1   
    54    31    64 1   
    55    31    65 1   
    56    32    66 1   
    57    32    67 1   
    58    33    34 ar  
    59    33    36 ar  
    60    34    35 ar  
    61    35    38 ar  
    62    35    68 1   
    63    36    37 ar  
    64    37    38 ar  
    65    37    69 1   
    66    39    40 ar  
    67    39    44 ar  
    68    40    41 ar  
    69    40    70 1   
    70    41    42 ar  
    71    41    71 1   
    72    42    43 ar  
    73    42    72 1   
    74    43    44 ar  
    75    43    73 1   
    76    44    45 1   
@<TRIPOS>SUBSTRUCTURE
     1 JZE         1 TEMP              0 ****  ****    0 ROOT
