@<TRIPOS>MOLECULE
JZF
   55    56     1     0     0
SMALL
abcg2


@<TRIPOS>ATOM
      1 N1          -2.9260    -0.0050    -0.6120 n          1 JZF      -0.373400
      2 O1           4.4660     2.0440    -0.8560 o          1 JZF      -0.499100
      3 C2          -2.4340    -1.2870    -0.8120 c          1 JZF       0.581500
      4 O2          -3.1460    -2.1470    -1.2790 o          1 JZF      -0.512500
      5 C3          -1.0090    -1.5450    -0.4200 c6         1 JZF      -0.163400
      6 O3          -2.8400     1.9950     0.4170 o          1 JZF      -0.512500
      7 C4          -0.1380    -0.2990    -0.3970 c6         1 JZF      -0.048700
      8 O4          -4.8440    -0.5450     1.2470 o          1 JZF      -0.488000
      9 C5          -0.8320     0.7190     0.4950 c6         1 JZF      -0.163400
     10 O5          -6.4650     0.2520    -0.0740 os         1 JZF      -0.448100
     11 C6          -2.2610     0.9770     0.1130 c          1 JZF       0.581500
     12 C7           1.2750    -0.6610     0.0560 c3         1 JZF      -0.109400
     13 C8           2.3070     0.4590    -0.0750 c3         1 JZF       0.182300
     14 C9           3.7390    -0.0910    -0.0400 c6         1 JZF      -0.196700
     15 OH           2.1180     1.4870     0.8760 oh         1 JZF      -0.639000
     16 C10          4.7670     0.9310    -0.4880 c          1 JZF       0.578100
     17 C11          6.2020     0.4480    -0.4730 c6         1 JZF      -0.162700
     18 C12          6.5360    -0.1350     0.9080 c6         1 JZF      -0.065400
     19 C13          5.5620    -1.2220     1.3570 c6         1 JZF      -0.061700
     20 C14          4.1350    -0.6760     1.3270 c6         1 JZF      -0.065400
     21 C15         -4.3050     0.2520    -0.9570 c3         1 JZF       0.023000
     22 C16         -7.4680     0.0180     0.9310 c3         1 JZF       0.168600
     23 C17         -8.7900     0.4970     0.3850 c3         1 JZF      -0.097100
     24 C18          7.1970     1.5200    -0.8860 c3         1 JZF      -0.078100
     25 C19          5.7130    -2.5140     0.5590 c3         1 JZF      -0.088100
     26 C21         -5.2160    -0.0650     0.2090 c          1 JZF       0.588100
     27 H13         -1.0290    -1.9990     0.5790 hc         1 JZF       0.085450
     28 H23         -0.6150    -2.3050    -1.0960 hc         1 JZF       0.085450
     29 H4          -0.0770     0.1040    -1.4140 hc         1 JZF       0.066700
     30 H15         -0.8370     0.3570     1.5300 hc         1 JZF       0.085450
     31 H25         -0.3240     1.6810     0.5070 hc         1 JZF       0.085450
     32 H17          1.2400    -1.0340     1.0860 hc         1 JZF       0.048700
     33 H27          1.6120    -1.5040    -0.5550 hc         1 JZF       0.048700
     34 H8           2.1590     0.9320    -1.0510 h1         1 JZF       0.087700
     35 H9           3.7920    -0.9010    -0.7800 hc         1 JZF       0.068700
     36 H1OH         2.0330     1.0890     1.7480 ho         1 JZF       0.434000
     37 H11          6.2470    -0.3690    -1.2050 hc         1 JZF       0.062700
     38 H112         7.5580    -0.5230     0.8890 hc         1 JZF       0.048700
     39 H212         6.5300     0.6800     1.6400 hc         1 JZF       0.048700
     40 H13A         5.7950    -1.4580     2.4000 hc         1 JZF       0.052700
     41 H114         4.0450     0.1020     2.0920 hc         1 JZF       0.044700
     42 H214         3.4320    -1.4670     1.6030 hc         1 JZF       0.044700
     43 H115        -4.4280     1.2920    -1.2540 h1         1 JZF       0.100200
     44 H215        -4.5890    -0.3570    -1.8140 h1         1 JZF       0.100200
     45 H116        -7.5040    -1.0470     1.1670 h1         1 JZF       0.049700
     46 H216        -7.2010     0.5570     1.8410 h1         1 JZF       0.049700
     47 H117        -8.7650     1.5600     0.1470 hc         1 JZF       0.047033
     48 H217        -9.0810    -0.0550    -0.5090 hc         1 JZF       0.047033
     49 H317        -9.5620     0.3410     1.1380 hc         1 JZF       0.047033
     50 H118         7.2070     2.3500    -0.1770 hc         1 JZF       0.042033
     51 H218         8.2020     1.1000    -0.9160 hc         1 JZF       0.042033
     52 H318         6.9780     1.9250    -1.8730 hc         1 JZF       0.042033
     53 H119         6.7340    -2.8930     0.6270 hc         1 JZF       0.034367
     54 H219         5.0490    -3.2880     0.9460 hc         1 JZF       0.034367
     55 H319         5.4840    -2.3910    -0.5010 hc         1 JZF       0.034367
@<TRIPOS>BOND
     1     1     3 1   
     2     1    11 1   
     3     1    21 1   
     4     2    16 2   
     5     3     4 2   
     6     3     5 1   
     7     5     7 1   
     8     5    27 1   
     9     5    28 1   
    10     6    11 2   
    11     7     9 1   
    12     7    12 1   
    13     7    29 1   
    14     8    26 2   
    15     9    11 1   
    16     9    30 1   
    17     9    31 1   
    18    10    22 1   
    19    10    26 1   
    20    12    13 1   
    21    12    32 1   
    22    12    33 1   
    23    13    14 1   
    24    13    15 1   
    25    13    34 1   
    26    14    16 1   
    27    14    20 1   
    28    14    35 1   
    29    15    36 1   
    30    16    17 1   
    31    17    18 1   
    32    17    24 1   
    33    17    37 1   
    34    18    19 1   
    35    18    38 1   
    36    18    39 1   
    37    19    20 1   
    38    19    25 1   
    39    19    40 1   
    40    20    41 1   
    41    20    42 1   
    42    21    26 1   
    43    21    43 1   
    44    21    44 1   
    45    22    23 1   
    46    22    45 1   
    47    22    46 1   
    48    23    47 1   
    49    23    48 1   
    50    23    49 1   
    51    24    50 1   
    52    24    51 1   
    53    24    52 1   
    54    25    53 1   
    55    25    54 1   
    56    25    55 1   
@<TRIPOS>SUBSTRUCTURE
     1 JZF         1 TEMP              0 ****  ****    0 ROOT
