@<TRIPOS>MOLECULE
JZF
   55    56     1     0     0
SMALL
No Charge or Current Charge


@<TRIPOS>ATOM
      1 N1          -3.0270     0.0410    -0.4300 n          1 JZF      -0.373400
      2 O1           4.5630     2.0710    -0.8990 o          1 JZF      -0.499100
      3 C2          -2.5050    -1.2400    -0.6820 c          1 JZF       0.581500
      4 O2          -3.1680    -2.1090    -1.2310 o          1 JZF      -0.512500
      5 C3          -1.0530    -1.5250    -0.2880 c6         1 JZF      -0.163400
      6 O3          -2.7840     2.1870     0.3560 o          1 JZF      -0.512500
      7 C4          -0.1450    -0.2740    -0.3160 c6         1 JZF      -0.048700
      8 O4          -5.1770    -0.4550     1.4130 o          1 JZF      -0.488000
      9 C5          -0.8220     0.8340     0.5270 c6         1 JZF      -0.163400
     10 O5          -6.7570     0.2500    -0.0960 os         1 JZF      -0.448100
     11 C6          -2.2910     1.0840     0.1630 c          1 JZF       0.581500
     12 C7           1.3040    -0.6370     0.1500 c3         1 JZF      -0.109400
     13 C8           2.3840     0.4740     0.0110 c3         1 JZF       0.182300
     14 C9           3.8460    -0.0780     0.0100 c6         1 JZF      -0.196700
     15 OH           2.2170     1.4300     1.0620 oh         1 JZF      -0.639000
     16 C10          4.8780     0.9490    -0.5190 c          1 JZF       0.578100
     17 C11          6.3530     0.4670    -0.5230 c6         1 JZF      -0.162700
     18 C12          6.7490    -0.1840     0.8320 c6         1 JZF      -0.065400
     19 C13          5.7570    -1.2880     1.2900 c6         1 JZF      -0.061700
     20 C14          4.3090    -0.7330     1.3510 c6         1 JZF      -0.065400
     21 C15         -4.4590     0.3060    -0.7990 c3         1 JZF       0.023000
     22 C16         -7.8250    -0.0010     0.8330 c3         1 JZF       0.168600
     23 C17         -9.1410     0.3780     0.1360 c3         1 JZF      -0.097100
     24 C18          7.3540     1.5700    -0.9770 c3         1 JZF      -0.078100
     25 C19          5.8690    -2.5910     0.4430 c3         1 JZF      -0.088100
     26 C21         -5.4750    -0.0160     0.3090 c          1 JZF       0.588100
     27 H13         -1.0950    -1.8800     0.7500 hc         1 JZF       0.085450
     28 H23         -0.6660    -2.3560    -0.8920 hc         1 JZF       0.085450
     29 H4          -0.0660     0.0730    -1.3570 hc         1 JZF       0.066700
     30 H15         -0.8270     0.5080     1.5750 hc         1 JZF       0.085450
     31 H25         -0.2900     1.7920     0.4980 hc         1 JZF       0.085450
     32 H17          1.2830    -0.9940     1.1870 hc         1 JZF       0.048700
     33 H27          1.6390    -1.4950    -0.4450 hc         1 JZF       0.048700
     34 H8           2.2210     0.9570    -0.9640 h1         1 JZF       0.087700
     35 H9           3.8910    -0.8940    -0.7210 hc         1 JZF       0.068700
     36 H1OH         2.2910     0.9380     1.9060 ho         1 JZF       0.434000
     37 H11          6.3930    -0.3510    -1.2540 hc         1 JZF       0.062700
     38 H112         7.7640    -0.6010     0.7660 hc         1 JZF       0.048700
     39 H212         6.7940     0.5960     1.6050 hc         1 JZF       0.048700
     40 H13A         6.0410    -1.5870     2.3090 hc         1 JZF       0.052700
     41 H114         4.2590     0.0110     2.1580 hc         1 JZF       0.044700
     42 H214         3.6210    -1.5390     1.6410 hc         1 JZF       0.044700
     43 H115        -4.6000     1.3580    -1.0720 h1         1 JZF       0.100200
     44 H215        -4.7460    -0.2790    -1.6810 h1         1 JZF       0.100200
     45 H116        -7.8540    -1.0600     1.1210 h1         1 JZF       0.049700
     46 H216        -7.7050     0.6040     1.7420 h1         1 JZF       0.049700
     47 H117        -9.1370     1.4380    -0.1470 hc         1 JZF       0.047033
     48 H217        -9.2870    -0.2260    -0.7680 hc         1 JZF       0.047033
     49 H317        -9.9890     0.2040     0.8070 hc         1 JZF       0.047033
     50 H118         7.3490     2.4230    -0.2870 hc         1 JZF       0.042033
     51 H218         8.3790     1.1810    -1.0160 hc         1 JZF       0.042033
     52 H318         7.1080     1.9460    -1.9780 hc         1 JZF       0.042033
     53 H119         6.8900    -2.9900     0.4730 hc         1 JZF       0.034367
     54 H219         5.2030    -3.3690     0.8330 hc         1 JZF       0.034367
     55 H319         5.6090    -2.4340    -0.6090 hc         1 JZF       0.034367
@<TRIPOS>BOND
     1     1     3 1   
     2     1    11 1   
     3     1    21 1   
     4     2    16 2   
     5     3     4 2   
     6     3     5 1   
     7     5     7 1   
     8     5    27 1   
     9     5    28 1   
    10     6    11 2   
    11     7     9 1   
    12     7    12 1   
    13     7    29 1   
    14     8    26 2   
    15     9    11 1   
    16     9    30 1   
    17     9    31 1   
    18    10    22 1   
    19    10    26 1   
    20    12    13 1   
    21    12    32 1   
    22    12    33 1   
    23    13    14 1   
    24    13    15 1   
    25    13    34 1   
    26    14    16 1   
    27    14    20 1   
    28    14    35 1   
    29    15    36 1   
    30    16    17 1   
    31    17    18 1   
    32    17    24 1   
    33    17    37 1   
    34    18    19 1   
    35    18    38 1   
    36    18    39 1   
    37    19    20 1   
    38    19    25 1   
    39    19    40 1   
    40    20    41 1   
    41    20    42 1   
    42    21    26 1   
    43    21    43 1   
    44    21    44 1   
    45    22    23 1   
    46    22    45 1   
    47    22    46 1   
    48    23    47 1   
    49    23    48 1   
    50    23    49 1   
    51    24    50 1   
    52    24    51 1   
    53    24    52 1   
    54    25    53 1   
    55    25    54 1   
    56    25    55 1   
@<TRIPOS>SUBSTRUCTURE
     1 JZF         1 TEMP              0 ****  ****    0 ROOT
