@<TRIPOS>MOLECULE
JZG
   68    73     1     0     0
SMALL
bcc


@<TRIPOS>ATOM
      1 C1           6.0410     0.7680    -0.4610 cc         1 JZG       0.082700
      2 N1           6.3840    -0.5680    -0.4810 na         1 JZG      -0.114100
      3 O1           6.9480     4.2220    -0.7750 o          1 JZG      -0.766100
      4 C2           6.8300     1.9080    -0.6780 cd         1 JZG      -0.372200
      5 N2           2.2530    -2.0150    -0.2630 nc         1 JZG      -0.351000
      6 C3           6.2290     3.1580    -0.5980 c          1 JZG       0.557500
      7 N3           1.0230    -2.0620     0.0780 nd         1 JZG      -0.240800
      8 C4           4.8290     3.2430    -0.3230 cd         1 JZG      -0.374400
      9 N4           0.7420    -0.9700     0.7750 na         1 JZG       0.076400
     10 O4          -3.1590     0.1510     1.7410 o          1 JZG      -0.575100
     11 C5           4.0770     2.1080    -0.1220 cc         1 JZG       0.027800
     12 N5          -3.9870    -0.6350    -0.2260 ns         1 JZG      -0.479100
     13 C6           4.6690     0.8480    -0.1720 cc         1 JZG      -0.220800
     14 C7           4.1360     4.5710    -0.2530 c          1 JZG       0.683300
     15 C8           4.1820    -0.4970    -0.0120 cd         1 JZG      -0.138500
     16 C9           5.2440    -1.3370    -0.1980 cd         1 JZG      -0.043300
     17 C10          7.7310    -1.0680    -0.6100 c3         1 JZG       0.046600
     18 C11          5.3110    -2.8000    -0.1420 ca         1 JZG       0.016000
     19 C12          5.7940    -3.5430    -1.2170 ca         1 JZG      -0.109500
     20 C13          5.8510    -4.9230    -1.1490 ca         1 JZG      -0.137000
     21 C14          5.4200    -5.5800    -0.0080 ca         1 JZG      -0.140000
     22 C15          4.9300    -4.8510     1.0630 ca         1 JZG      -0.137000
     23 C16          4.8770    -3.4700     0.9980 ca         1 JZG      -0.109500
     24 C17          2.8030    -0.8750     0.2220 cd         1 JZG       0.373800
     25 C18          1.8270    -0.1910     0.9040 cc         1 JZG      -0.225600
     26 C20         -1.6030    -0.6950     0.1420 c3         1 JZG      -0.186400
     27 C21         -2.9910    -0.3570     0.6610 c          1 JZG       0.684100
     28 C22         -5.3590    -0.3660    -0.1290 ca         1 JZG       0.085600
     29 C23         -6.1640    -0.7540    -1.1980 ca         1 JZG      -0.171000
     30 C24         -7.5220    -0.5130    -1.1880 ca         1 JZG      -0.089000
     31 C25         -8.1310     0.1240    -0.1100 cp         1 JZG      -0.071000
     32 C26         -7.3150     0.5020     0.9520 ca         1 JZG      -0.089000
     33 C27         -5.9510     0.2670     0.9590 ca         1 JZG      -0.171000
     34 C28         -9.5790     0.3950    -0.1010 cp         1 JZG      -0.021000
     35 C29        -10.3230     0.2760     1.0700 ca         1 JZG      -0.120500
     36 C30        -11.6840     0.5320     1.0760 ca         1 JZG      -0.129000
     37 C31        -12.3280     0.9110    -0.0900 ca         1 JZG      -0.131000
     38 C32        -11.6000     1.0330    -1.2630 ca         1 JZG      -0.129000
     39 C33        -10.2390     0.7790    -1.2670 ca         1 JZG      -0.120500
     40 HO1          5.8490     5.2170    -0.5220 ho         1 JZG       0.505000
     41 H2           7.8880     1.8350    -0.9180 ha         1 JZG       0.125000
     42 H5           3.0190     2.2240     0.0670 ha         1 JZG       0.121000
     43 HN5         -3.7070    -1.0760    -1.0840 hn         1 JZG       0.319500
     44 H10          8.4210    -0.4750    -0.0070 h1         1 JZG       0.035700
     45 H10A         7.7710    -2.0990    -0.2620 h1         1 JZG       0.035700
     46 H10B         8.0860    -1.0580    -1.6450 h1         1 JZG       0.035700
     47 H12          6.1120    -3.0450    -2.1230 ha         1 JZG       0.135000
     48 H13          6.2240    -5.4860    -1.9930 ha         1 JZG       0.118500
     49 H14          5.4620    -6.6590     0.0460 ha         1 JZG       0.115000
     50 H15          4.5890    -5.3560     1.9550 ha         1 JZG       0.118500
     51 H16          4.4980    -2.9060     1.8390 ha         1 JZG       0.135000
     52 H18          1.8230     0.7340     1.4550 h4         1 JZG       0.198000
     53 H19         -0.8450    -1.5370     1.9850 h1         1 JZG       0.074200
     54 H19A        -0.5930     0.1940     1.8230 h1         1 JZG       0.074200
     55 H20         -1.3090     0.0780    -0.5770 hc         1 JZG       0.085200
     56 H20A        -1.5980    -1.6420    -0.4020 hc         1 JZG       0.085200
     57 H23         -5.7250    -1.2560    -2.0540 ha         1 JZG       0.149000
     58 H24         -8.1200    -0.8450    -2.0260 ha         1 JZG       0.131000
     59 H26         -7.7470     1.0190     1.7980 ha         1 JZG       0.131000
     60 H27         -5.3610     0.5920     1.8000 ha         1 JZG       0.149000
     61 H29         -9.8380    -0.0430     1.9830 ha         1 JZG       0.132000
     62 H30        -12.2450     0.4270     1.9950 ha         1 JZG       0.127000
     63 H31        -13.3910     1.1090    -0.0850 ha         1 JZG       0.126000
     64 H32        -12.0910     1.3370    -2.1770 ha         1 JZG       0.127000
     65 H33         -9.6760     0.9020    -2.1830 ha         1 JZG       0.132000
     66 O2           4.9150     5.6220    -0.4520 oh         1 JZG      -0.668100
     67 O3           2.9650     4.6650    -0.0340 o          1 JZG      -0.593000
     68 C19         -0.5980    -0.7460     1.2760 c3         1 JZG       0.070300
@<TRIPOS>BOND
     1     1     2 1   
     2     1     4 2   
     3     1    13 1   
     4     2    16 2   
     5     2    17 1   
     6     3     6 2   
     7     4     6 1   
     8     4    41 1   
     9     5     7 2   
    10     5    24 1   
    11     6     8 1   
    12     7     9 1   
    13     8    11 2   
    14     8    14 1   
    15     9    25 1   
    16     9    68 1   
    17    10    27 2   
    18    11    13 1   
    19    11    42 1   
    20    12    27 1   
    21    12    28 1   
    22    12    43 1   
    23    13    15 2   
    24    14    66 1   
    25    14    67 2   
    26    15    16 1   
    27    15    24 1   
    28    16    18 1   
    29    17    44 1   
    30    17    45 1   
    31    17    46 1   
    32    18    19 ar  
    33    18    23 ar  
    34    19    20 ar  
    35    19    47 1   
    36    20    21 ar  
    37    20    48 1   
    38    21    22 ar  
    39    21    49 1   
    40    22    23 ar  
    41    22    50 1   
    42    23    51 1   
    43    24    25 2   
    44    25    52 1   
    45    26    27 1   
    46    26    55 1   
    47    26    56 1   
    48    26    68 1   
    49    28    29 ar  
    50    28    33 ar  
    51    29    30 ar  
    52    29    57 1   
    53    30    31 ar  
    54    30    58 1   
    55    31    32 ar  
    56    31    34 1   
    57    32    33 ar  
    58    32    59 1   
    59    33    60 1   
    60    34    35 ar  
    61    34    39 ar  
    62    35    36 ar  
    63    35    61 1   
    64    36    37 ar  
    65    36    62 1   
    66    37    38 ar  
    67    37    63 1   
    68    38    39 ar  
    69    38    64 1   
    70    39    65 1   
    71    40    66 1   
    72    53    68 1   
    73    54    68 1   
@<TRIPOS>SUBSTRUCTURE
     1 JZG         1 TEMP              0 ****  ****    0 ROOT
