@<TRIPOS>MOLECULE
JZG
   68    73     1     0     0
SMALL
No Charge or Current Charge


@<TRIPOS>ATOM
      1 C1           6.1350     0.5720    -0.1780 cc         1 JZG       0.032000
      2 N1           6.4100    -0.7630    -0.3050 na         1 JZG      -0.092700
      3 O1           7.5180     3.8370    -0.2250 o          1 JZG      -0.766100
      4 C2           7.1010     1.5330    -0.2700 cd         1 JZG      -0.422200
      5 N2           2.1980    -1.9160     0.0220 nc         1 JZG      -0.351000
      6 C3           6.6910     2.9370    -0.1600 c          1 JZG       0.557500
      7 N3           0.9120    -1.9010     0.2520 nd         1 JZG      -0.240800
      8 C4           5.2360     3.2130     0.0210 cd         1 JZG      -0.374400
      9 N4           0.6890    -0.6030     0.5950 na         1 JZG       0.097800
     10 O4          -3.0430     1.8230     0.8680 o          1 JZG      -0.575100
     11 C5           4.3050     2.1750     0.0960 cc         1 JZG      -0.022200
     12 N5          -3.8580     0.0480    -0.3750 ns         1 JZG      -0.153000
     13 C6           4.7760     0.8190     0.0140 cc         1 JZG      -0.220800
     14 C7           4.7470     4.6060     0.1130 c          1 JZG       0.644300
     15 C8           4.1390    -0.4220     0.0300 cd         1 JZG      -0.138500
     16 C9           5.1850    -1.4210    -0.1850 cd         1 JZG      -0.043300
     17 C10          7.7280    -1.3970    -0.4990 c3         1 JZG       0.075900
     18 C11          5.0460    -2.8840    -0.2520 ca         1 JZG       0.016000
     19 C12          5.3480    -3.5700    -1.4450 ca         1 JZG      -0.091500
     20 C13          5.2420    -4.9710    -1.5030 ca         1 JZG      -0.119000
     21 C14          4.8400    -5.6940    -0.3670 ca         1 JZG      -0.122000
     22 C15          4.5460    -5.0150     0.8280 ca         1 JZG      -0.119000
     23 C16          4.6520    -3.6150     0.8850 ca         1 JZG      -0.091500
     24 C17          2.7180    -0.7090     0.2020 cd         1 JZG       0.308500
     25 C18          1.7880     0.2180     0.5900 cc         1 JZG      -0.193000
     26 C20         -1.4380     0.4360    -0.2560 c3         1 JZG      -0.186400
     27 C21         -2.8520     0.8460     0.1540 c          1 JZG       0.617100
     28 C22         -5.2740     0.0770    -0.2450 ca         1 JZG      -0.007000
     29 C23         -6.0160    -0.8560    -0.9900 ca         1 JZG      -0.153000
     30 C24         -7.4180    -0.8890    -0.9120 ca         1 JZG      -0.071000
     31 C25         -8.1260     0.0130    -0.0810 cp         1 JZG      -0.071000
     32 C26         -7.3690     0.9460     0.6680 ca         1 JZG      -0.071000
     33 C27         -5.9650     0.9810     0.5890 ca         1 JZG      -0.153000
     34 C28         -9.6220    -0.0210     0.0040 cp         1 JZG      -0.021000
     35 C29        -10.2940     0.2670     1.2200 ca         1 JZG      -0.102500
     36 C30        -11.6970     0.2350     1.3000 ca         1 JZG      -0.111000
     37 C31        -12.4590    -0.0850     0.1660 ca         1 JZG      -0.113000
     38 C32        -11.8170    -0.3730    -1.0490 ca         1 JZG      -0.111000
     39 C33        -10.4140    -0.3420    -1.1280 ca         1 JZG      -0.102500
     40 HO1          6.5030     4.9820    -0.0790 ho         1 JZG       0.539000
     41 H2           8.1550     1.3400    -0.4250 ha         1 JZG       0.175000
     42 H5           3.2530     2.4020     0.1830 ha         1 JZG       0.171000
     43 HN5         -3.5200    -0.7040    -0.9620 hn         1 JZG       0.153000
     44 H10          8.4650    -0.9310     0.1650 h1         1 JZG       0.035700
     45 H10A         7.6750    -2.4670    -0.2660 h1         1 JZG       0.035700
     46 H10B         8.0440    -1.2690    -1.5420 h1         1 JZG       0.035700
     47 H12          5.6610    -3.0150    -2.3250 ha         1 JZG       0.117000
     48 H13          5.4740    -5.4950    -2.4280 ha         1 JZG       0.100500
     49 H14          4.7590    -6.7780    -0.4120 ha         1 JZG       0.097000
     50 H15          4.2370    -5.5730     1.7090 ha         1 JZG       0.100500
     51 H16          4.4280    -3.0920     1.8120 ha         1 JZG       0.117000
     52 H18          1.7770     1.2520     0.8840 h4         1 JZG       0.180000
     53 H19         -1.2330    -1.0600     1.3110 h1         1 JZG       0.074200
     54 H19A        -0.6240     0.5410     1.7590 h1         1 JZG       0.074200
     55 H20         -0.8950     1.3300    -0.5840 hc         1 JZG       0.085200
     56 H20A        -1.4750    -0.2980    -1.0700 hc         1 JZG       0.085200
     57 H23         -5.5040    -1.5670    -1.6370 ha         1 JZG       0.131000
     58 H24         -7.9590    -1.6320    -1.4930 ha         1 JZG       0.113000
     59 H26         -7.8740     1.6640     1.3100 ha         1 JZG       0.113000
     60 H27         -5.4380     1.7170     1.1880 ha         1 JZG       0.131000
     61 H29         -9.7230     0.5040     2.1140 ha         1 JZG       0.114000
     62 H30        -12.1930     0.4560     2.2430 ha         1 JZG       0.109000
     63 H31        -13.5450    -0.1090     0.2270 ha         1 JZG       0.108000
     64 H32        -12.4060    -0.6180    -1.9300 ha         1 JZG       0.109000
     65 H33         -9.9380    -0.5550    -2.0820 ha         1 JZG       0.114000
     66 O2           5.6860     5.5540     0.0290 oh         1 JZG      -0.702100
     67 O3           3.5790     4.9220     0.2560 o          1 JZG      -0.554000
     68 C19         -0.6810    -0.1860     0.9390 c3         1 JZG       0.099600
@<TRIPOS>BOND
     1     1     2 1   
     2     1     4 2   
     3     1    13 1   
     4     2    16 2   
     5     2    17 1   
     6     3     6 2   
     7     4     6 1   
     8     4    41 1   
     9     5     7 2   
    10     5    24 1   
    11     6     8 1   
    12     7     9 1   
    13     8    11 2   
    14     8    14 1   
    15     9    25 1   
    16     9    68 1   
    17    10    27 2   
    18    11    13 1   
    19    11    42 1   
    20    12    27 1   
    21    12    28 1   
    22    12    43 1   
    23    13    15 2   
    24    14    66 1   
    25    14    67 2   
    26    15    16 1   
    27    15    24 1   
    28    16    18 1   
    29    17    44 1   
    30    17    45 1   
    31    17    46 1   
    32    18    19 ar  
    33    18    23 ar  
    34    19    20 ar  
    35    19    47 1   
    36    20    21 ar  
    37    20    48 1   
    38    21    22 ar  
    39    21    49 1   
    40    22    23 ar  
    41    22    50 1   
    42    23    51 1   
    43    24    25 2   
    44    25    52 1   
    45    26    27 1   
    46    26    55 1   
    47    26    56 1   
    48    26    68 1   
    49    28    29 ar  
    50    28    33 ar  
    51    29    30 ar  
    52    29    57 1   
    53    30    31 ar  
    54    30    58 1   
    55    31    32 ar  
    56    31    34 1   
    57    32    33 ar  
    58    32    59 1   
    59    33    60 1   
    60    34    35 ar  
    61    34    39 ar  
    62    35    36 ar  
    63    35    61 1   
    64    36    37 ar  
    65    36    62 1   
    66    37    38 ar  
    67    37    63 1   
    68    38    39 ar  
    69    38    64 1   
    70    39    65 1   
    71    40    66 1   
    72    53    68 1   
    73    54    68 1   
@<TRIPOS>SUBSTRUCTURE
     1 JZG         1 TEMP              0 ****  ****    0 ROOT
