@<TRIPOS>MOLECULE
JZH
   41    45     1     0     0
SMALL
bcc


@<TRIPOS>ATOM
      1 O1           4.6470    -0.1300    -2.2450 oh         1 JZH      -0.495100
      2 C2           3.4100     0.2600    -1.8720 ca         1 JZH       0.139100
      3 C3           3.2690     1.5290    -1.3150 ca         1 JZH      -0.193500
      4 C4           2.0210     1.9640    -0.9080 ca         1 JZH      -0.078500
      5 C5           0.8910     1.1580    -1.0340 ca         1 JZH      -0.113300
      6 C6           1.0440    -0.0920    -1.6130 ca         1 JZH      -0.078500
      7 C7           2.2870    -0.5450    -2.0290 ca         1 JZH      -0.193500
      8 C8          -0.4410     1.7040    -0.5620 c3         1 JZH      -0.006200
      9 C9          -0.4450     2.1580     0.8950 c          1 JZH       0.721500
     10 O10         -0.8610     3.2610     1.2080 o          1 JZH      -0.634500
     11 N11         -0.0460     1.2730     1.8410 ns         1 JZH      -0.486100
     12 C12          0.6620     0.0560     1.6730 ca         1 JZH       0.078600
     13 C13          2.0130     0.0460     2.0070 ca         1 JZH      -0.143000
     14 C14          2.7540    -1.1190     1.9350 ca         1 JZH      -0.107000
     15 C15          2.1420    -2.2960     1.5280 ca         1 JZH      -0.133000
     16 C16          0.7970    -2.2910     1.2040 ca         1 JZH      -0.111000
     17 C17          0.0310    -1.1240     1.2750 cp         1 JZH      -0.037000
     18 C18         -1.3920    -1.2140     0.8990 cp         1 JZH       0.055000
     19 C19         -2.1660    -2.2720     1.3670 ca         1 JZH      -0.274300
     20 C20         -3.4750    -2.4570     0.9210 ca         1 JZH       0.422200
     21 N21         -4.0720    -1.6780     0.0310 nb         1 JZH      -0.679000
     22 C22         -3.3390    -0.6650    -0.3970 ca         1 JZH       0.433800
     23 N23         -3.7350     0.2580    -1.3120 na         1 JZH      -0.271100
     24 C25         -2.7290     1.1590    -1.5000 cc         1 JZH      -0.079100
     25 C26         -1.6470     0.8350    -0.7310 cd         1 JZH      -0.141400
     26 C27         -2.0140    -0.3450    -0.0050 ca         1 JZH      -0.176100
     27 HO1          4.6190    -1.0190    -2.6160 ho         1 JZH       0.424000
     28 H3           4.1350     2.1690    -1.2030 ha         1 JZH       0.139000
     29 H4           1.9310     2.9560    -0.4790 ha         1 JZH       0.139000
     30 H6           0.1850    -0.7400    -1.7380 ha         1 JZH       0.139000
     31 H7           2.3790    -1.5330    -2.4680 ha         1 JZH       0.139000
     32 H8          -0.6320     2.6200    -1.1280 hc         1 JZH       0.082700
     33 HN11        -0.0420     1.6480     2.7810 hn         1 JZH       0.319500
     34 H13          2.4800     0.9720     2.3180 ha         1 JZH       0.140000
     35 H14          3.8060    -1.1070     2.1890 ha         1 JZH       0.137000
     36 H15          2.7100    -3.2130     1.4580 ha         1 JZH       0.135000
     37 H16          0.3290    -3.2070     0.8690 ha         1 JZH       0.136000
     38 H19         -1.7550    -2.9710     2.0840 ha         1 JZH       0.142000
     39 H20         -4.0560    -3.2870     1.3060 h4         1 JZH       0.020100
     40 HN23        -4.6340     0.2830    -1.7640 hn         1 JZH       0.314700
     41 H25         -2.8570     1.9970    -2.1680 h4         1 JZH       0.171000
@<TRIPOS>BOND
     1     1     2 1   
     2     1    27 1   
     3     2     3 ar  
     4     2     7 ar  
     5     3     4 ar  
     6     3    28 1   
     7     4     5 ar  
     8     4    29 1   
     9     5     6 ar  
    10     5     8 1   
    11     6     7 ar  
    12     6    30 1   
    13     7    31 1   
    14     8     9 1   
    15     8    25 1   
    16     8    32 1   
    17     9    10 2   
    18     9    11 1   
    19    11    12 1   
    20    11    33 1   
    21    12    13 ar  
    22    12    17 ar  
    23    13    14 ar  
    24    13    34 1   
    25    14    15 ar  
    26    14    35 1   
    27    15    16 ar  
    28    15    36 1   
    29    16    17 ar  
    30    16    37 1   
    31    17    18 1   
    32    18    19 ar  
    33    18    26 ar  
    34    19    20 ar  
    35    19    38 1   
    36    20    21 ar  
    37    20    39 1   
    38    21    22 ar  
    39    22    23 1   
    40    22    26 ar  
    41    23    24 1   
    42    23    40 1   
    43    24    25 2   
    44    24    41 1   
    45    25    26 1   
@<TRIPOS>SUBSTRUCTURE
     1 JZH         1 TEMP              0 ****  ****    0 ROOT
