@<TRIPOS>MOLECULE
JZH
   41    45     1     0     0
SMALL
No Charge or Current Charge


@<TRIPOS>ATOM
      1 O1           4.5550    -0.3570    -2.3070 oh         1 JZH      -0.534100
      2 C2           3.3500     0.1290    -1.8970 ca         1 JZH       0.139100
      3 C3           3.2880     1.3590    -1.2300 ca         1 JZH      -0.175500
      4 C4           2.0500     1.8690    -0.8020 ca         1 JZH      -0.060500
      5 C5           0.8600     1.1460    -1.0310 ca         1 JZH      -0.113300
      6 C6           0.9320    -0.0850    -1.7230 ca         1 JZH      -0.060500
      7 C7           2.1730    -0.5910    -2.1480 ca         1 JZH      -0.175500
      8 C8          -0.4800     1.7170    -0.5320 c3         1 JZH      -0.006200
      9 C9          -0.4400     2.2180     0.9340 c          1 JZH       0.579000
     10 O10         -0.7380     3.3700     1.2310 o          1 JZH      -0.559000
     11 N11         -0.1020     1.3040     1.9140 ns         1 JZH      -0.160000
     12 C12          0.6570     0.1240     1.7840 ca         1 JZH      -0.014000
     13 C13          2.0060     0.1570     2.1820 ca         1 JZH      -0.125000
     14 C14          2.8130    -0.9820     2.0510 ca         1 JZH      -0.089000
     15 C15          2.2680    -2.1640     1.5310 ca         1 JZH      -0.115000
     16 C16          0.9170    -2.2040     1.1500 ca         1 JZH      -0.093000
     17 C17          0.0760    -1.0660     1.2630 cp         1 JZH      -0.037000
     18 C18         -1.3630    -1.2050     0.8660 cp         1 JZH       0.055000
     19 C19         -2.1050    -2.3190     1.3300 ca         1 JZH      -0.191000
     20 C20         -3.4240    -2.5350     0.8940 ca         1 JZH       0.356900
     21 N21         -4.0470    -1.7270     0.0070 nb         1 JZH      -0.679000
     22 C22         -3.3500    -0.6680    -0.4410 ca         1 JZH       0.368500
     23 N23         -3.7490     0.2740    -1.3590 na         1 JZH      -0.321400
     24 C25         -2.7520     1.2390    -1.5790 cc         1 JZH      -0.129100
     25 C26         -1.7060     0.8570    -0.7540 cd         1 JZH      -0.141400
     26 C27         -2.0610    -0.3630    -0.0390 ca         1 JZH      -0.110800
     27 HO1          4.4060    -1.2190    -2.7510 ho         1 JZH       0.463000
     28 H3           4.1990     1.9200    -1.0410 ha         1 JZH       0.121000
     29 H4           2.0210     2.8260    -0.2860 ha         1 JZH       0.121000
     30 H6           0.0340    -0.6620    -1.9280 ha         1 JZH       0.121000
     31 H7           2.2100    -1.5440    -2.6700 ha         1 JZH       0.121000
     32 H8          -0.6450     2.6290    -1.1190 hc         1 JZH       0.082700
     33 HN11        -0.1530     1.6650     2.8580 hn         1 JZH       0.153000
     34 H13          2.4340     1.0750     2.5800 ha         1 JZH       0.122000
     35 H14          3.8590    -0.9480     2.3500 ha         1 JZH       0.119000
     36 H15          2.8900    -3.0500     1.4260 ha         1 JZH       0.117000
     37 H16          0.5130    -3.1320     0.7500 ha         1 JZH       0.118000
     38 H19         -1.6590    -3.0240     2.0250 ha         1 JZH       0.124000
     39 H20         -3.9930    -3.3920     1.2520 h4         1 JZH       0.020100
     40 HN23        -4.6600     0.2610    -1.8000 hn         1 JZH       0.365000
     41 H25         -2.8780     2.0980    -2.2340 h4         1 JZH       0.221000
@<TRIPOS>BOND
     1     1     2 1   
     2     1    27 1   
     3     2     3 ar  
     4     2     7 ar  
     5     3     4 ar  
     6     3    28 1   
     7     4     5 ar  
     8     4    29 1   
     9     5     6 ar  
    10     5     8 1   
    11     6     7 ar  
    12     6    30 1   
    13     7    31 1   
    14     8     9 1   
    15     8    25 1   
    16     8    32 1   
    17     9    10 2   
    18     9    11 1   
    19    11    12 1   
    20    11    33 1   
    21    12    13 ar  
    22    12    17 ar  
    23    13    14 ar  
    24    13    34 1   
    25    14    15 ar  
    26    14    35 1   
    27    15    16 ar  
    28    15    36 1   
    29    16    17 ar  
    30    16    37 1   
    31    17    18 1   
    32    18    19 ar  
    33    18    26 ar  
    34    19    20 ar  
    35    19    38 1   
    36    20    21 ar  
    37    20    39 1   
    38    21    22 ar  
    39    22    23 1   
    40    22    26 ar  
    41    23    24 1   
    42    23    40 1   
    43    24    25 2   
    44    24    41 1   
    45    25    26 1   
@<TRIPOS>SUBSTRUCTURE
     1 JZH         1 TEMP              0 ****  ****    0 ROOT
