@<TRIPOS>MOLECULE
JZI
   44    46     1     0     0
SMALL
No Charge or Current Charge


@<TRIPOS>ATOM
      1 C1           3.7320    -0.1790    -0.0890 ce         1 JZI      -0.221200
      2 C2           4.0190     1.2350     0.2930 ca         1 JZI      -0.016800
      3 C3           5.2800     1.5560     0.8350 ca         1 JZI      -0.111500
      4 C4           5.5830     2.8770     1.2090 ca         1 JZI      -0.113500
      5 C5           4.6250     3.8900     1.0470 ca         1 JZI      -0.130000
      6 C6           3.3630     3.5800     0.5150 ca         1 JZI      -0.113500
      7 C7           3.0600     2.2590     0.1400 ca         1 JZI      -0.111500
      8 C8           1.3530    -2.6890    -0.4050 c3         1 JZI      -0.045300
      9 C9           2.4520    -2.0340    -1.2780 c3         1 JZI      -0.053200
     10 C10          1.1850    -4.2000    -0.7470 c          1 JZI       0.715000
     11 O11          0.6180    -4.5030    -1.7900 o          1 JZI      -0.717500
     12 O12          1.5490    -5.0230     0.0810 o          1 JZI      -0.717500
     13 C13          2.7340    -0.5930    -0.9020 c2         1 JZI      -0.153200
     14 C14         -5.2580     2.8840     0.9660 ca         1 JZI      -0.127000
     15 C15         -5.9700     2.4800    -0.1760 ca         1 JZI      -0.115000
     16 C16         -5.4550     1.4700    -1.0050 ca         1 JZI      -0.104000
     17 C17         -4.0290     2.2780     1.2810 ca         1 JZI      -0.084000
     18 C18         -3.5090     1.2640     0.4520 ca         1 JZI      -0.046000
     19 C19         -4.2250     0.8600    -0.6940 ca         1 JZI      -0.030000
     20 C20         -3.7030    -0.1500    -1.5190 ca         1 JZI      -0.124000
     21 C21         -2.4750    -0.7590    -1.2090 ca         1 JZI      -0.079000
     22 C22         -1.7440    -0.3640    -0.0600 ca         1 JZI      -0.123600
     23 C23         -2.2790     0.6540     0.7630 ca         1 JZI      -0.048000
     24 N25          0.0540    -1.9820    -0.5360 ns         1 JZI      -0.451900
     25 O26          0.2110    -0.6500     1.3030 o          1 JZI      -0.611100
     26 H1           4.4160    -0.9130     0.3390 ha         1 JZI       0.174000
     27 H3           6.0300     0.7790     0.9640 ha         1 JZI       0.112000
     28 H4           6.5600     3.1140     1.6230 ha         1 JZI       0.101500
     29 H5           4.8580     4.9120     1.3360 ha         1 JZI       0.100000
     30 H6           2.6170     4.3630     0.3950 ha         1 JZI       0.101500
     31 H7           2.0720     2.0400    -0.2550 ha         1 JZI       0.112000
     32 H8           1.6740    -2.6390     0.6430 h1         1 JZI       0.071700
     33 H9           3.3710    -2.6280    -1.1920 hc         1 JZI       0.059200
     34 H9A          2.1530    -2.0880    -2.3320 hc         1 JZI       0.059200
     35 H13          2.0460     0.1190    -1.3590 ha         1 JZI       0.158000
     36 H16         -6.0110     1.1620    -1.8880 ha         1 JZI       0.104000
     37 H17         -3.4840     2.5960     2.1670 ha         1 JZI       0.115000
     38 H20         -4.2490    -0.4670    -2.4050 ha         1 JZI       0.104000
     39 H21         -2.1070    -1.5350    -1.8740 ha         1 JZI       0.114000
     40 H23         -1.7360     0.9760     1.6490 ha         1 JZI       0.141000
     41 HN25        -0.5380    -2.2310    -1.3180 hn         1 JZI       0.294500
     42 C24         -0.4150    -0.9940     0.3080 c          1 JZI       0.609700
     43 H14         -5.6570     3.6660     1.6080 ha         1 JZI       0.103000
     44 H15         -6.9210     2.9500    -0.4180 ha         1 JZI       0.101000
@<TRIPOS>BOND
     1     1     2 1   
     2     1    13 2   
     3     1    26 1   
     4     2     3 ar  
     5     2     7 ar  
     6     3     4 ar  
     7     3    27 1   
     8     4     5 ar  
     9     4    28 1   
    10     5     6 ar  
    11     5    29 1   
    12     6     7 ar  
    13     6    30 1   
    14     7    31 1   
    15     8     9 1   
    16     8    10 1   
    17     8    24 1   
    18     8    32 1   
    19     9    13 1   
    20     9    33 1   
    21     9    34 1   
    22    10    11 1   
    23    10    12 1   
    24    13    35 1   
    25    14    15 ar  
    26    14    17 ar  
    27    14    43 1   
    28    15    16 ar  
    29    15    44 1   
    30    16    19 ar  
    31    16    36 1   
    32    17    18 ar  
    33    17    37 1   
    34    18    19 ar  
    35    18    23 ar  
    36    19    20 ar  
    37    20    21 ar  
    38    20    38 1   
    39    21    22 ar  
    40    21    39 1   
    41    22    23 ar  
    42    22    42 1   
    43    23    40 1   
    44    24    41 1   
    45    24    42 1   
    46    25    42 2   
@<TRIPOS>SUBSTRUCTURE
     1 JZI         1 TEMP              0 ****  ****    0 ROOT
