@<TRIPOS>MOLECULE
JZI
   44    46     1     0     0
SMALL
abcg2


@<TRIPOS>ATOM
      1 C1           4.0900    -0.1740    -0.3210 ce         1 JZI      -0.221200
      2 C2           4.6760     1.1650    -0.1870 ca         1 JZI      -0.016800
      3 C3           6.0290     1.2750     0.1410 ca         1 JZI      -0.111500
      4 C4           6.6360     2.5160     0.2860 ca         1 JZI      -0.113500
      5 C5           5.8970     3.6760     0.1040 ca         1 JZI      -0.130000
      6 C6           4.5490     3.5820    -0.2250 ca         1 JZI      -0.113500
      7 C7           3.9450     2.3440    -0.3680 ca         1 JZI      -0.111500
      8 C8           1.1350    -2.1260     0.2430 c3         1 JZI      -0.045300
      9 C9           2.2960    -1.8620    -0.7250 c3         1 JZI      -0.053200
     10 C10          0.7410    -3.6290     0.2390 c          1 JZI       0.715000
     11 O11         -0.4040    -3.9240    -0.1390 o          1 JZI      -0.717500
     12 O12          1.6410    -4.4040     0.6190 o          1 JZI      -0.717500
     13 C13          2.8250    -0.4680    -0.6250 c2         1 JZI      -0.153200
     14 C14         -6.7360     1.1150     0.6980 ca         1 JZI      -0.127000
     15 C15         -6.6220     1.9310    -0.4490 ca         1 JZI      -0.115000
     16 C16         -5.4320     2.0220    -1.1190 ca         1 JZI      -0.104000
     17 C17         -5.6560     0.4080     1.1520 ca         1 JZI      -0.084000
     18 C18         -4.4130     0.4840     0.4800 ca         1 JZI      -0.046000
     19 C19         -4.3000     1.3010    -0.6740 ca         1 JZI      -0.030000
     20 C20         -3.0530     1.3730    -1.3370 ca         1 JZI      -0.124000
     21 C21         -1.9770     0.6610    -0.8870 ca         1 JZI      -0.079000
     22 C22         -2.0850    -0.1610     0.2620 ca         1 JZI      -0.123600
     23 C23         -3.2810    -0.2280     0.9310 ca         1 JZI      -0.048000
     24 N25          0.0310    -1.2550    -0.0860 ns         1 JZI      -0.451900
     25 O26         -0.8760    -1.2560     1.9820 o          1 JZI      -0.611100
     26 H1           4.7820    -0.9950    -0.1500 ha         1 JZI       0.174000
     27 H3           6.6150     0.3750     0.2840 ha         1 JZI       0.112000
     28 H4           7.6860     2.5740     0.5400 ha         1 JZI       0.101500
     29 H5           6.3650     4.6460     0.2180 ha         1 JZI       0.100000
     30 H6           3.9640     4.4810    -0.3700 ha         1 JZI       0.101500
     31 H7           2.8930     2.3000    -0.6220 ha         1 JZI       0.112000
     32 H8           1.4740    -1.8730     1.2500 h1         1 JZI       0.071700
     33 H9           3.0880    -2.5820    -0.5190 hc         1 JZI       0.059200
     34 H9A          1.9520    -2.0550    -1.7490 hc         1 JZI       0.059200
     35 H13          2.1080     0.3290    -0.8010 ha         1 JZI       0.158000
     36 H16         -5.3450     2.6490    -1.9980 ha         1 JZI       0.104000
     37 H17         -5.7390    -0.2170     2.0320 ha         1 JZI       0.115000
     38 H20         -2.9570     2.0090    -2.2090 ha         1 JZI       0.104000
     39 H21         -1.0310     0.7580    -1.4050 ha         1 JZI       0.114000
     40 H23         -3.3720    -0.8460     1.8160 ha         1 JZI       0.141000
     41 HN25        -0.1900    -1.1680    -1.0660 hn         1 JZI       0.294500
     42 C24         -0.9290    -0.9470     0.7990 c          1 JZI       0.609700
     43 H14         -7.6840     1.0510     1.2160 ha         1 JZI       0.103000
     44 H15         -7.4830     2.4880    -0.7950 ha         1 JZI       0.101000
@<TRIPOS>BOND
     1     1     2 1   
     2     1    13 2   
     3     1    26 1   
     4     2     3 ar  
     5     2     7 ar  
     6     3     4 ar  
     7     3    27 1   
     8     4     5 ar  
     9     4    28 1   
    10     5     6 ar  
    11     5    29 1   
    12     6     7 ar  
    13     6    30 1   
    14     7    31 1   
    15     8     9 1   
    16     8    10 1   
    17     8    24 1   
    18     8    32 1   
    19     9    13 1   
    20     9    33 1   
    21     9    34 1   
    22    10    11 1   
    23    10    12 1   
    24    13    35 1   
    25    14    15 ar  
    26    14    17 ar  
    27    14    43 1   
    28    15    16 ar  
    29    15    44 1   
    30    16    19 ar  
    31    16    36 1   
    32    17    18 ar  
    33    17    37 1   
    34    18    19 ar  
    35    18    23 ar  
    36    19    20 ar  
    37    20    21 ar  
    38    20    38 1   
    39    21    22 ar  
    40    21    39 1   
    41    22    23 ar  
    42    22    42 1   
    43    23    40 1   
    44    24    41 1   
    45    24    42 1   
    46    25    42 2   
@<TRIPOS>SUBSTRUCTURE
     1 JZI         1 TEMP              0 ****  ****    0 ROOT
