@<TRIPOS>MOLECULE
JZJ
   38    41     1     0     0
SMALL
No Charge or Current Charge


@<TRIPOS>ATOM
      1 N1           3.9850     1.6050    -0.5870 n7         1 JZJ      -0.869400
      2 N3           0.4990     0.3230    -0.4380 nc         1 JZJ      -0.668000
      3 C4           1.6170     0.9130    -0.0320 cd         1 JZJ       0.393800
      4 C5           5.8800    -0.0350    -0.4020 ca         1 JZJ      -0.082300
      5 C6           5.0640    -0.8710     0.3960 ca         1 JZJ      -0.065300
      6 C7           7.2500    -0.3300    -0.5420 ca         1 JZJ      -0.106000
      7 C8           5.6310    -1.9810     1.0510 ca         1 JZJ      -0.106000
      8 C10          6.9990    -2.2670     0.9090 ca         1 JZJ      -0.106000
      9 C13         -1.9500     0.7260    -0.0190 ca         1 JZJ      -0.084500
     10 C15         -2.3710    -0.1940    -1.0070 ca         1 JZJ      -0.098500
     11 C17         -3.7330    -0.5000    -1.1740 ca         1 JZJ      -0.087500
     12 C18         -4.6930     0.1030    -0.3480 ca         1 JZJ      -0.019900
     13 C14         -2.9310     1.3150     0.8140 ca         1 JZJ      -0.098500
     14 C16         -4.2930     1.0080     0.6470 ca         1 JZJ      -0.087500
     15 C11         -0.5160     1.0170     0.1540 cc         1 JZJ       0.286500
     16 N2           1.3200     1.9790     0.8020 na         1 JZJ      -0.280500
     17 C12         -0.0610     2.0530     0.9250 cd         1 JZJ      -0.204000
     18 C1           3.0250     0.4660    -0.4430 c6         1 JZJ       0.142200
     19 C2           5.2880     1.1710    -1.1440 c6         1 JZJ       0.206100
     20 C3           3.5750    -0.5600     0.5820 c6         1 JZJ      -0.025100
     21 C9           7.8090    -1.4420     0.1120 ca         1 JZJ      -0.109000
     22 HN1          3.5860     2.3070    -1.2250 hn         1 JZJ       0.416000
     23 H7           7.8830     0.3030    -1.1610 ha         1 JZJ       0.110000
     24 H8           5.0110    -2.6220     1.6740 ha         1 JZJ       0.113000
     25 H10          7.4310    -3.1260     1.4170 ha         1 JZJ       0.114000
     26 H15         -1.6410    -0.6730    -1.6550 ha         1 JZJ       0.123500
     27 H17         -4.0410    -1.2060    -1.9420 ha         1 JZJ       0.127000
     28 H14         -2.6510     2.0090     1.6020 ha         1 JZJ       0.123500
     29 H16         -5.0370     1.4690     1.2930 ha         1 JZJ       0.127000
     30 HN2          2.0130     2.5860     1.2240 hn         1 JZJ       0.368000
     31 H12         -0.5760     2.8040     1.5110 h4         1 JZJ       0.161000
     32 H1           2.9460    -0.0400    -1.4180 h1         1 JZJ       0.064700
     33 H2           5.1590     0.8990    -2.2030 h1         1 JZJ       0.044200
     34 H2A          5.9980     2.0110    -1.1060 h1         1 JZJ       0.044200
     35 H3           2.9870    -1.4860     0.5180 hc         1 JZJ       0.062200
     36 H3A          3.4270    -0.1730     1.5990 hc         1 JZJ       0.062200
     37 H9           8.8680    -1.6630    -0.0000 ha         1 JZJ       0.114000
     38 Br          -6.5460    -0.3140    -0.5730 br         1 JZJ      -0.105100
@<TRIPOS>BOND
     1     1    18 1   
     2     1    19 1   
     3     1    22 1   
     4     2     3 2   
     5     2    15 1   
     6     3    16 1   
     7     3    18 1   
     8     4     5 ar  
     9     4     6 ar  
    10     4    19 1   
    11     5     7 ar  
    12     5    20 1   
    13     6    21 ar  
    14     6    23 1   
    15     7     8 ar  
    16     7    24 1   
    17     8    21 ar  
    18     8    25 1   
    19     9    10 ar  
    20     9    13 ar  
    21     9    15 1   
    22    10    11 ar  
    23    10    26 1   
    24    11    12 ar  
    25    11    27 1   
    26    12    14 ar  
    27    12    38 1   
    28    13    14 ar  
    29    13    28 1   
    30    14    29 1   
    31    15    17 2   
    32    16    17 1   
    33    16    30 1   
    34    17    31 1   
    35    18    20 1   
    36    18    32 1   
    37    19    33 1   
    38    19    34 1   
    39    20    35 1   
    40    20    36 1   
    41    21    37 1   
@<TRIPOS>SUBSTRUCTURE
     1 JZJ         1 TEMP              0 ****  ****    0 ROOT
