@<TRIPOS>MOLECULE
JZJ
   38    41     1     0     0
SMALL
abcg2


@<TRIPOS>ATOM
      1 N1           3.8920     1.5570    -0.4900 n7         1 JZJ      -0.869400
      2 N3           0.4990     0.3450    -0.4340 nc         1 JZJ      -0.668000
      3 C4           1.6270     0.8670    -0.0300 cd         1 JZJ       0.393800
      4 C5           5.7850     0.0020    -0.3840 ca         1 JZJ      -0.082300
      5 C6           5.0080    -0.8490     0.3990 ca         1 JZJ      -0.065300
      6 C7           7.1360    -0.2850    -0.5770 ca         1 JZJ      -0.106000
      7 C8           5.6000    -1.9710     0.9790 ca         1 JZJ      -0.106000
      8 C10          6.9430    -2.2490     0.7880 ca         1 JZJ      -0.106000
      9 C13         -1.9050     0.7240     0.0030 ca         1 JZJ      -0.084500
     10 C15         -2.2810    -0.3060    -0.8610 ca         1 JZJ      -0.098500
     11 C17         -3.6150    -0.6140    -1.0760 ca         1 JZJ      -0.087500
     12 C18         -4.5950     0.1150    -0.4180 ca         1 JZJ      -0.019900
     13 C14         -2.9140     1.4390     0.6510 ca         1 JZJ      -0.098500
     14 C16         -4.2510     1.1430     0.4470 ca         1 JZJ      -0.087500
     15 C11         -0.4940     1.0330     0.2140 cc         1 JZJ       0.286500
     16 N2           1.4090     1.8670     0.8520 na         1 JZJ      -0.280500
     17 C12          0.0650     1.9920     1.0210 cd         1 JZJ      -0.204000
     18 C1           2.9950     0.4150    -0.4160 c6         1 JZJ       0.142200
     19 C2           5.1740     1.1950    -1.0670 c6         1 JZJ       0.206100
     20 C3           3.5500    -0.5560     0.6270 c6         1 JZJ      -0.025100
     21 C9           7.7170    -1.4000     0.0040 ca         1 JZJ      -0.109000
     22 HN1          3.4800     2.2770    -1.0710 hn         1 JZJ       0.416000
     23 H7           7.7370     0.3760    -1.1900 ha         1 JZJ       0.110000
     24 H8           4.9940    -2.6350     1.5840 ha         1 JZJ       0.113000
     25 H10          7.3850    -3.1250     1.2460 ha         1 JZJ       0.114000
     26 H15         -1.5210    -0.8770    -1.3770 ha         1 JZJ       0.123500
     27 H17         -3.8750    -1.4190    -1.7510 ha         1 JZJ       0.127000
     28 H14         -2.6660     2.2470     1.3270 ha         1 JZJ       0.123500
     29 H16         -5.0090     1.7170     0.9640 ha         1 JZJ       0.127000
     30 HN2          2.1200     2.4300     1.2930 hn         1 JZJ       0.368000
     31 H12         -0.3610     2.7340     1.6750 h4         1 JZJ       0.161000
     32 H1           2.9020    -0.1170    -1.3750 h1         1 JZJ       0.064700
     33 H2           5.0920     0.9690    -2.1410 h1         1 JZJ       0.044200
     34 H2A          5.8470     2.0510    -0.9840 h1         1 JZJ       0.044200
     35 H3           2.9700    -1.4810     0.6100 hc         1 JZJ       0.062200
     36 H3A          3.4180    -0.1240     1.6240 hc         1 JZJ       0.062200
     37 H9           8.7680    -1.6070    -0.1530 ha         1 JZJ       0.114000
     38 BR          -6.4160    -0.2960    -0.7040 br         1 JZJ      -0.105100
@<TRIPOS>BOND
     1     1    18 1   
     2     1    19 1   
     3     1    22 1   
     4     2     3 2   
     5     2    15 1   
     6     3    16 1   
     7     3    18 1   
     8     4     5 ar  
     9     4     6 ar  
    10     4    19 1   
    11     5     7 ar  
    12     5    20 1   
    13     6    21 ar  
    14     6    23 1   
    15     7     8 ar  
    16     7    24 1   
    17     8    21 ar  
    18     8    25 1   
    19     9    10 ar  
    20     9    13 ar  
    21     9    15 1   
    22    10    11 ar  
    23    10    26 1   
    24    11    12 ar  
    25    11    27 1   
    26    12    14 ar  
    27    12    38 1   
    28    13    14 ar  
    29    13    28 1   
    30    14    29 1   
    31    15    17 2   
    32    16    17 1   
    33    16    30 1   
    34    17    31 1   
    35    18    20 1   
    36    18    32 1   
    37    19    33 1   
    38    19    34 1   
    39    20    35 1   
    40    20    36 1   
    41    21    37 1   
@<TRIPOS>SUBSTRUCTURE
     1 JZJ         1 TEMP              0 ****  ****    0 ROOT
