@<TRIPOS>MOLECULE
JZK
   53    56     1     0     0
SMALL
abcg2


@<TRIPOS>ATOM
      1 N1           6.5130     2.1940    -0.3730 nt         1 JZK      -0.605000
      2 C2           5.3030     2.7350    -0.1450 c          1 JZK       0.617700
      3 O3           5.1630     3.9120     0.1650 o          1 JZK      -0.607100
      4 C4           4.1300     1.8250    -0.2910 ca         1 JZK      -0.172600
      5 C5           4.1820     0.6640    -1.0750 ca         1 JZK      -0.091000
      6 C6           3.0810    -0.1720    -1.2080 ca         1 JZK      -0.121000
      7 C7           1.9290     0.1880    -0.5320 ca         1 JZK      -0.065200
      8 N8           0.6880    -0.3950    -0.4400 na         1 JZK      -0.216600
      9 C9           0.2420    -1.6190    -1.0710 c3         1 JZK       0.078600
     10 C10          0.2400    -2.8250    -0.1330 c6         1 JZK      -0.085700
     11 C11         -0.4420    -4.0130    -0.8070 c6         1 JZK      -0.071900
     12 C12         -0.4750    -5.2300     0.1130 c6         1 JZK      -0.073400
     13 C13          0.9230    -5.6060     0.5930 c6         1 JZK      -0.075400
     14 C14          1.6170    -4.4190     1.2530 c6         1 JZK      -0.073400
     15 C15          1.6460    -3.2050     0.3280 c6         1 JZK      -0.071900
     16 C16         -0.0550     0.4150     0.3820 cc         1 JZK       0.675700
     17 N17         -1.3370     0.1300     0.6640 nu         1 JZK      -0.908400
     18 C18         -2.1530     0.9640     1.5160 c3         1 JZK       0.287100
     19 C19         -3.5680     1.0000     1.0110 ca         1 JZK      -0.109300
     20 C20         -4.5860     0.3820     1.7320 ca         1 JZK      -0.095000
     21 C21         -5.8980     0.3860     1.2800 ca         1 JZK      -0.113000
     22 C22         -6.2110     1.0130     0.0850 ca         1 JZK      -0.094000
     23 C23         -5.2160     1.6360    -0.6550 ca         1 JZK      -0.109000
     24 C24         -3.9120     1.6220    -0.1880 ca         1 JZK       0.138000
     25 CL25        -2.6870     2.4190    -1.1230 cl         1 JZK      -0.184000
     26 N26          0.6010     1.4640     0.8160 nd         1 JZK      -0.645100
     27 C27          1.8480     1.3530     0.2540 ca         1 JZK       0.097400
     28 C28          2.9520     2.1830     0.3650 ca         1 JZK      -0.012000
     29 HN1          7.3370     2.7580    -0.2410 hn         1 JZK       0.309500
     30 HN1A         6.6530     1.2020    -0.4470 hn         1 JZK       0.309500
     31 H5           5.0820     0.4070    -1.6190 ha         1 JZK       0.108000
     32 H6           3.1350    -1.0590    -1.8250 ha         1 JZK       0.115000
     33 H9          -0.7580    -1.4510    -1.4800 h1         1 JZK       0.060700
     34 H9A          0.8910    -1.8090    -1.9280 h1         1 JZK       0.060700
     35 H10         -0.3480    -2.5640     0.7580 hc         1 JZK       0.049700
     36 H11         -1.4570    -3.7410    -1.1080 hc         1 JZK       0.043200
     37 H11A         0.1000    -4.2650    -1.7270 hc         1 JZK       0.043200
     38 H12         -1.1110    -5.0100     0.9770 hc         1 JZK       0.041200
     39 H12A        -0.9380    -6.0740    -0.4040 hc         1 JZK       0.041200
     40 H13          0.8710    -6.4480     1.2860 hc         1 JZK       0.040700
     41 H13A         1.5210    -5.9430    -0.2620 hc         1 JZK       0.040700
     42 H14          1.0890    -4.1550     2.1760 hc         1 JZK       0.041200
     43 H14A         2.6340    -4.6890     1.5460 hc         1 JZK       0.041200
     44 H15          2.2590    -3.4360    -0.5520 hc         1 JZK       0.043200
     45 H15A         2.1280    -2.3650     0.8340 hc         1 JZK       0.043200
     46 HN17        -1.6980    -0.7840     0.4440 hn         1 JZK       0.493000
     47 H18         -2.1470     0.6000     2.5470 h1         1 JZK       0.070700
     48 H18A        -1.7210     1.9640     1.5300 h1         1 JZK       0.070700
     49 H20         -4.3370    -0.1110     2.6630 ha         1 JZK       0.116000
     50 H21         -6.6700    -0.1030     1.8600 ha         1 JZK       0.119000
     51 H22         -7.2300     1.0230    -0.2800 ha         1 JZK       0.119000
     52 H23         -5.4550     2.1290    -1.5880 ha         1 JZK       0.131000
     53 H28          2.9050     3.0840     0.9630 ha         1 JZK       0.149000
@<TRIPOS>BOND
     1     1     2 1   
     2     1    29 1   
     3     1    30 1   
     4     2     3 2   
     5     2     4 1   
     6     4     5 ar  
     7     4    28 ar  
     8     5     6 ar  
     9     5    31 1   
    10     6     7 ar  
    11     6    32 1   
    12     7     8 1   
    13     7    27 ar  
    14     8     9 1   
    15     8    16 1   
    16     9    10 1   
    17     9    33 1   
    18     9    34 1   
    19    10    11 1   
    20    10    15 1   
    21    10    35 1   
    22    11    12 1   
    23    11    36 1   
    24    11    37 1   
    25    12    13 1   
    26    12    38 1   
    27    12    39 1   
    28    13    14 1   
    29    13    40 1   
    30    13    41 1   
    31    14    15 1   
    32    14    42 1   
    33    14    43 1   
    34    15    44 1   
    35    15    45 1   
    36    16    17 1   
    37    16    26 2   
    38    17    18 1   
    39    17    46 1   
    40    18    19 1   
    41    18    47 1   
    42    18    48 1   
    43    19    20 ar  
    44    19    24 ar  
    45    20    21 ar  
    46    20    49 1   
    47    21    22 ar  
    48    21    50 1   
    49    22    23 ar  
    50    22    51 1   
    51    23    24 ar  
    52    23    52 1   
    53    24    25 1   
    54    26    27 1   
    55    27    28 ar  
    56    28    53 1   
@<TRIPOS>SUBSTRUCTURE
     1 JZK         1 TEMP              0 ****  ****    0 ROOT
