@<TRIPOS>MOLECULE
JZK
   53    56     1     0     0
SMALL
No Charge or Current Charge


@<TRIPOS>ATOM
      1 N1           6.9220     1.9120    -0.0300 nt         1 JZK      -0.605000
      2 C2           5.7320     2.4280     0.3440 c          1 JZK       0.617700
      3 O3           5.7100     3.4950     0.9350 o          1 JZK      -0.607100
      4 C4           4.4780     1.6540     0.0110 ca         1 JZK      -0.172600
      5 C5           4.5220     0.4060    -0.6790 ca         1 JZK      -0.091000
      6 C6           3.3360    -0.2960    -0.9770 ca         1 JZK      -0.121000
      7 C7           2.1210     0.2740    -0.5750 ca         1 JZK      -0.065200
      8 N8           0.8340    -0.1610    -0.7120 na         1 JZK      -0.216600
      9 C9           0.4470    -1.4250    -1.3670 c3         1 JZK       0.078600
     10 C10          0.1250    -2.5950    -0.3910 c6         1 JZK      -0.085700
     11 C11         -0.4140    -3.8300    -1.1650 c6         1 JZK      -0.071900
     12 C12         -0.7510    -4.9990    -0.2070 c6         1 JZK      -0.073400
     13 C13          0.4740    -5.3880     0.6550 c6         1 JZK      -0.075400
     14 C14          1.0170    -4.1660     1.4340 c6         1 JZK      -0.073400
     15 C15          1.3540    -2.9950     0.4780 c6         1 JZK      -0.071900
     16 C16          0.0310     0.8000    -0.1090 cc         1 JZK       0.675700
     17 N17         -1.3230     0.7210    -0.0280 nu         1 JZK      -0.908400
     18 C18         -2.1960     1.6300     0.7170 c3         1 JZK       0.287100
     19 C19         -3.6050     1.0540     0.7750 ca         1 JZK      -0.109300
     20 C20         -3.9540     0.1950     1.8390 ca         1 JZK      -0.095000
     21 C21         -5.2450    -0.3550     1.9180 ca         1 JZK      -0.113000
     22 C22         -6.2000    -0.0530     0.9340 ca         1 JZK      -0.094000
     23 C23         -5.8610     0.7980    -0.1310 ca         1 JZK      -0.109000
     24 C24         -4.5710     1.3500    -0.2140 ca         1 JZK       0.138000
     25 Cl25        -4.1960     2.4020    -1.5800 cl         1 JZK      -0.184000
     26 N26          0.7350     1.8190     0.3940 nd         1 JZK      -0.645100
     27 C27          2.0520     1.4670     0.0920 ca         1 JZK       0.097400
     28 C28          3.2190     2.1830     0.3980 ca         1 JZK      -0.012000
     29 HN1          7.7670     2.4180     0.1850 hn         1 JZK       0.309500
     30 HN1A         6.9610     1.0320    -0.5200 hn         1 JZK       0.309500
     31 H5           5.4680    -0.0300    -0.9880 ha         1 JZK       0.108000
     32 H6           3.3750    -1.2480    -1.5000 ha         1 JZK       0.115000
     33 H9          -0.4400    -1.2290    -1.9820 h1         1 JZK       0.060700
     34 H9A          1.2440    -1.7400    -2.0520 h1         1 JZK       0.060700
     35 H10         -0.6700    -2.2350     0.2770 hc         1 JZK       0.049700
     36 H11         -1.3130    -3.5540    -1.7340 hc         1 JZK       0.043200
     37 H11A         0.3300    -4.1630    -1.9020 hc         1 JZK       0.043200
     38 H12         -1.5880    -4.7130     0.4460 hc         1 JZK       0.041200
     39 H12A        -1.0910    -5.8690    -0.7850 hc         1 JZK       0.041200
     40 H13          0.1980    -6.1860     1.3580 hc         1 JZK       0.040700
     41 H13A         1.2640    -5.7980     0.0110 hc         1 JZK       0.040700
     42 H14          0.2730    -3.8370     2.1720 hc         1 JZK       0.041200
     43 H14A         1.9130    -4.4530     2.0000 hc         1 JZK       0.041200
     44 H15          2.1940    -3.2800    -0.1710 hc         1 JZK       0.043200
     45 H15A         1.6960    -2.1350     1.0700 hc         1 JZK       0.043200
     46 HN17        -1.7200    -0.1430    -0.3790 hn         1 JZK       0.493000
     47 H18         -1.8180     1.7610     1.7410 h1         1 JZK       0.070700
     48 H18A        -2.2050     2.6250     0.2520 h1         1 JZK       0.070700
     49 H20         -3.2210    -0.0480     2.6060 ha         1 JZK       0.116000
     50 H21         -5.5050    -1.0160     2.7430 ha         1 JZK       0.119000
     51 H22         -7.1990    -0.4790     0.9950 ha         1 JZK       0.119000
     52 H23         -6.5980     1.0290    -0.8950 ha         1 JZK       0.131000
     53 H28          3.1440     3.1290     0.9280 ha         1 JZK       0.149000
@<TRIPOS>BOND
     1     1     2 1   
     2     1    29 1   
     3     1    30 1   
     4     2     3 2   
     5     2     4 1   
     6     4     5 ar  
     7     4    28 ar  
     8     5     6 ar  
     9     5    31 1   
    10     6     7 ar  
    11     6    32 1   
    12     7     8 1   
    13     7    27 ar  
    14     8     9 1   
    15     8    16 1   
    16     9    10 1   
    17     9    33 1   
    18     9    34 1   
    19    10    11 1   
    20    10    15 1   
    21    10    35 1   
    22    11    12 1   
    23    11    36 1   
    24    11    37 1   
    25    12    13 1   
    26    12    38 1   
    27    12    39 1   
    28    13    14 1   
    29    13    40 1   
    30    13    41 1   
    31    14    15 1   
    32    14    42 1   
    33    14    43 1   
    34    15    44 1   
    35    15    45 1   
    36    16    17 1   
    37    16    26 2   
    38    17    18 1   
    39    17    46 1   
    40    18    19 1   
    41    18    47 1   
    42    18    48 1   
    43    19    20 ar  
    44    19    24 ar  
    45    20    21 ar  
    46    20    49 1   
    47    21    22 ar  
    48    21    50 1   
    49    22    23 ar  
    50    22    51 1   
    51    23    24 ar  
    52    23    52 1   
    53    24    25 1   
    54    26    27 1   
    55    27    28 ar  
    56    28    53 1   
@<TRIPOS>SUBSTRUCTURE
     1 JZK         1 TEMP              0 ****  ****    0 ROOT
