@<TRIPOS>MOLECULE
JZL
   59    62     1     0     0
SMALL
No Charge or Current Charge


@<TRIPOS>ATOM
      1 N1           6.5840     1.9950     1.3160 nt         1 JZL      -0.607000
      2 C2           5.3840     2.6080     1.2380 c          1 JZL       0.618700
      3 O3           5.2630     3.7320     1.6960 o          1 JZL      -0.608100
      4 C4           4.2410     1.8640     0.5800 ca         1 JZL      -0.137600
      5 C5           4.3930     0.5490     0.0550 ca         1 JZL      -0.167000
      6 C6           3.3180    -0.1290    -0.5520 ca         1 JZL       0.267000
      7 N7           3.5330    -1.4050    -1.0070 nv         1 JZL      -1.054000
      8 C8           2.0750     0.5420    -0.6380 ca         1 JZL      -0.098200
      9 N9           0.8370     0.2030    -1.1560 na         1 JZL      -0.212600
     10 C10          0.4800    -1.0760    -1.8110 c3         1 JZL       0.076600
     11 C11         -0.3540    -2.0390    -0.9120 c3         1 JZL      -0.071700
     12 C12          0.3870    -2.4850     0.3840 c3         1 JZL      -0.067400
     13 C13         -0.5500    -2.6340     1.6080 c3         1 JZL      -0.075400
     14 C14         -1.5440    -3.8160     1.5730 c3         1 JZL      -0.074400
     15 C15         -2.4260    -3.9300     0.3080 c3         1 JZL      -0.063400
     16 C16         -1.6380    -4.3530    -0.9530 c3         1 JZL      -0.110400
     17 C17         -0.9430    -3.2170    -1.7470 c3         1 JZL       0.179300
     18 O18          0.0820    -3.8060    -2.5540 oh         1 JZL      -0.666000
     19 C19         -0.0010     1.2850    -0.9050 cc         1 JZL       0.675700
     20 N20         -1.3150     1.3290    -1.2520 nu         1 JZL      -0.916400
     21 C21         -2.3500     2.0080    -0.4670 c3         1 JZL       0.290100
     22 C22         -2.7360     1.1410     0.7270 ca         1 JZL      -0.113300
     23 C23         -2.1940     1.4280     1.9970 ca         1 JZL      -0.094000
     24 C24         -2.5340     0.6420     3.1120 ca         1 JZL      -0.113000
     25 C25         -3.4180    -0.4390     2.9680 ca         1 JZL      -0.095000
     26 C26         -3.9570    -0.7370     1.7060 ca         1 JZL      -0.108000
     27 C27         -3.6170     0.0440     0.5880 ca         1 JZL       0.133000
     28 Cl28        -4.2990    -0.3890    -0.9800 cl         1 JZL      -0.184000
     29 N29          0.6160     2.2860    -0.2790 nd         1 JZL      -0.651100
     30 C30          1.9140     1.8060    -0.1230 ca         1 JZL       0.122400
     31 C31          2.9740     2.4880     0.4870 ca         1 JZL      -0.043000
     32 HN1          7.3560     2.4780     1.7510 hn         1 JZL       0.311000
     33 HN1A         6.7040     1.0670     0.9410 hn         1 JZL       0.311000
     34 H5           5.3510     0.0410     0.1200 ha         1 JZL       0.104000
     35 HN7          4.4110    -1.8680    -0.7850 hn         1 JZL       0.434000
     36 HN7A         2.7360    -2.0020    -1.2040 hn         1 JZL       0.434000
     37 H10         -0.1160    -0.8330    -2.7000 h1         1 JZL       0.076200
     38 H10A         1.3720    -1.5800    -2.1910 h1         1 JZL       0.076200
     39 H11         -1.2180    -1.4480    -0.5870 hc         1 JZL       0.050700
     40 H12          0.9370    -3.4180     0.2100 hc         1 JZL       0.047700
     41 H12A         1.1400    -1.7390     0.6580 hc         1 JZL       0.047700
     42 H13          0.0710    -2.7400     2.5060 hc         1 JZL       0.043200
     43 H13A        -1.1080    -1.7000     1.7410 hc         1 JZL       0.043200
     44 H14         -0.9880    -4.7520     1.7070 hc         1 JZL       0.039200
     45 H14A        -2.2020    -3.7290     2.4460 hc         1 JZL       0.039200
     46 H15         -3.1900    -4.6940     0.5030 hc         1 JZL       0.040200
     47 H15A        -2.9680    -2.9950     0.1270 hc         1 JZL       0.040200
     48 H16         -0.8980    -5.1100    -0.6630 hc         1 JZL       0.045200
     49 H16A        -2.3300    -4.8620    -1.6360 hc         1 JZL       0.045200
     50 H17         -1.7030    -2.7760    -2.4080 h1         1 JZL       0.023700
     51 HO18        -0.3430    -4.5160    -3.0830 ho         1 JZL       0.445000
     52 HN20        -1.6140     0.5000    -1.7530 hn         1 JZL       0.494000
     53 H21         -1.9920     2.9850    -0.1140 h1         1 JZL       0.072700
     54 H21A        -3.2360     2.2030    -1.0870 h1         1 JZL       0.072700
     55 H23         -1.5040     2.2600     2.1200 ha         1 JZL       0.116000
     56 H24         -2.1100     0.8710     4.0870 ha         1 JZL       0.119000
     57 H25         -3.6810    -1.0480     3.8310 ha         1 JZL       0.119000
     58 H26         -4.6360    -1.5780     1.5920 ha         1 JZL       0.131000
     59 H31          2.8110     3.4880     0.8810 ha         1 JZL       0.150000
@<TRIPOS>BOND
     1     1     2 1   
     2     1    32 1   
     3     1    33 1   
     4     2     3 2   
     5     2     4 1   
     6     4     5 ar  
     7     4    31 ar  
     8     5     6 ar  
     9     5    34 1   
    10     6     7 1   
    11     6     8 ar  
    12     7    35 1   
    13     7    36 1   
    14     8     9 1   
    15     8    30 ar  
    16     9    10 1   
    17     9    19 1   
    18    10    11 1   
    19    10    37 1   
    20    10    38 1   
    21    11    12 1   
    22    11    17 1   
    23    11    39 1   
    24    12    13 1   
    25    12    40 1   
    26    12    41 1   
    27    13    14 1   
    28    13    42 1   
    29    13    43 1   
    30    14    15 1   
    31    14    44 1   
    32    14    45 1   
    33    15    16 1   
    34    15    46 1   
    35    15    47 1   
    36    16    17 1   
    37    16    48 1   
    38    16    49 1   
    39    17    18 1   
    40    17    50 1   
    41    18    51 1   
    42    19    20 1   
    43    19    29 2   
    44    20    21 1   
    45    20    52 1   
    46    21    22 1   
    47    21    53 1   
    48    21    54 1   
    49    22    23 ar  
    50    22    27 ar  
    51    23    24 ar  
    52    23    55 1   
    53    24    25 ar  
    54    24    56 1   
    55    25    26 ar  
    56    25    57 1   
    57    26    27 ar  
    58    26    58 1   
    59    27    28 1   
    60    29    30 1   
    61    30    31 ar  
    62    31    59 1   
@<TRIPOS>SUBSTRUCTURE
     1 JZL         1 TEMP              0 ****  ****    0 ROOT
