@<TRIPOS>MOLECULE
JZL
   59    62     1     0     0
SMALL
bcc


@<TRIPOS>ATOM
      1 N1           6.2000     2.9680    -0.9270 nt         1 JZL      -0.674000
      2 C2           5.2980     2.9970     0.0690 c          1 JZL       0.685700
      3 O3           5.4250     3.7270     1.0450 o          1 JZL      -0.608100
      4 C4           4.1220     2.0870    -0.0720 ca         1 JZL      -0.137600
      5 C5           4.1800     0.9290    -0.8580 ca         1 JZL      -0.185000
      6 C6           3.0990     0.0580    -0.9970 ca         1 JZL       0.128600
      7 N7           3.1840    -1.0570    -1.8270 nv         1 JZL      -0.805200
      8 C8           1.9340     0.4170    -0.3100 ca         1 JZL      -0.098200
      9 N9           0.6720    -0.1510    -0.2180 na         1 JZL      -0.183300
     10 C10          0.1370    -1.3110    -0.9080 c3         1 JZL       0.047300
     11 C11          0.0160    -2.5490    -0.0060 c3         1 JZL      -0.071700
     12 C12          1.3600    -3.0280     0.5550 c3         1 JZL      -0.067400
     13 C13          1.2420    -3.5630     1.9820 c3         1 JZL      -0.075400
     14 C14          0.5110    -4.8920     2.1400 c3         1 JZL      -0.074400
     15 C15         -0.8620    -4.9930     1.4770 c3         1 JZL      -0.063400
     16 C16         -0.7870    -4.9930    -0.0510 c3         1 JZL      -0.110400
     17 C17         -0.7880    -3.6260    -0.7360 c3         1 JZL       0.156100
     18 O18         -0.2720    -3.7370    -2.0510 oh         1 JZL      -0.603800
     19 C19         -0.0490     0.6640     0.6130 cc         1 JZL       0.675700
     20 N20         -1.3410     0.4160     0.8960 nu         1 JZL      -0.861200
     21 C21         -2.1800     1.3510     1.6100 c3         1 JZL       0.290100
     22 C22         -3.5210     1.4820     0.9420 ca         1 JZL      -0.113300
     23 C23         -4.6650     0.9990     1.5690 ca         1 JZL      -0.112000
     24 C24         -5.9140     1.0920     0.9710 ca         1 JZL      -0.131000
     25 C25         -6.0340     1.6740    -0.2820 ca         1 JZL      -0.113000
     26 C26         -4.9090     2.1640    -0.9310 ca         1 JZL      -0.126000
     27 C27         -3.6710     2.0630    -0.3160 ca         1 JZL       0.041400
     28 CL28        -2.2830     2.6980    -1.1400 cl         1 JZL      -0.092400
     29 N29          0.6320     1.6870     1.0660 nd         1 JZL      -0.651100
     30 C30          1.8730     1.5640     0.4990 ca         1 JZL       0.122400
     31 C31          2.9700     2.4060     0.6330 ca         1 JZL      -0.061000
     32 HN1          7.0020     3.5760    -0.8890 hn         1 JZL       0.311000
     33 HN1A         6.0280     2.4930    -1.7950 hn         1 JZL       0.311000
     34 H5           5.1020     0.6560    -1.3600 ha         1 JZL       0.122000
     35 HN7          4.1220    -1.2230    -2.1600 hn         1 JZL       0.378800
     36 HN7A         2.8230    -1.9120    -1.4310 hn         1 JZL       0.378800
     37 H10         -0.8440    -1.0430    -1.3130 h1         1 JZL       0.076200
     38 H10A         0.7650    -1.5060    -1.7720 h1         1 JZL       0.076200
     39 H11         -0.5930    -2.2540     0.8560 hc         1 JZL       0.050700
     40 H12          1.8140    -3.7740    -0.1050 hc         1 JZL       0.047700
     41 H12A         2.0640    -2.1920     0.5950 hc         1 JZL       0.047700
     42 H13          2.2440    -3.6730     2.4050 hc         1 JZL       0.043200
     43 H13A         0.7430    -2.7970     2.5860 hc         1 JZL       0.043200
     44 H14          1.1380    -5.6920     1.7330 hc         1 JZL       0.039200
     45 H14A         0.4100    -5.1020     3.2080 hc         1 JZL       0.039200
     46 H15         -1.3160    -5.9340     1.7970 hc         1 JZL       0.040200
     47 H15A        -1.5320    -4.2070     1.8390 hc         1 JZL       0.040200
     48 H16          0.1190    -5.5260    -0.3540 hc         1 JZL       0.045200
     49 H16A        -1.6230    -5.5660    -0.4620 hc         1 JZL       0.045200
     50 H17         -1.8270    -3.2640    -0.7770 h1         1 JZL       0.023700
     51 HO18        -0.7640    -4.4240    -2.5110 ho         1 JZL       0.406000
     52 HN20        -1.7670    -0.4400     0.5880 hn         1 JZL       0.438800
     53 H21         -2.3260     1.0340     2.6460 h1         1 JZL       0.072700
     54 H21A        -1.6660     2.3120     1.6400 h1         1 JZL       0.072700
     55 H23         -4.5690     0.5400     2.5460 ha         1 JZL       0.134000
     56 H24         -6.7880     0.7100     1.4810 ha         1 JZL       0.137000
     57 H25         -7.0010     1.7540    -0.7600 ha         1 JZL       0.137000
     58 H26         -4.9960     2.6240    -1.9060 ha         1 JZL       0.149000
     59 H31          2.9170     3.2880     1.2560 ha         1 JZL       0.168000
@<TRIPOS>BOND
     1     1     2 1   
     2     1    32 1   
     3     1    33 1   
     4     2     3 2   
     5     2     4 1   
     6     4     5 ar  
     7     4    31 ar  
     8     5     6 ar  
     9     5    34 1   
    10     6     7 1   
    11     6     8 ar  
    12     7    35 1   
    13     7    36 1   
    14     8     9 1   
    15     8    30 ar  
    16     9    10 1   
    17     9    19 1   
    18    10    11 1   
    19    10    37 1   
    20    10    38 1   
    21    11    12 1   
    22    11    17 1   
    23    11    39 1   
    24    12    13 1   
    25    12    40 1   
    26    12    41 1   
    27    13    14 1   
    28    13    42 1   
    29    13    43 1   
    30    14    15 1   
    31    14    44 1   
    32    14    45 1   
    33    15    16 1   
    34    15    46 1   
    35    15    47 1   
    36    16    17 1   
    37    16    48 1   
    38    16    49 1   
    39    17    18 1   
    40    17    50 1   
    41    18    51 1   
    42    19    20 1   
    43    19    29 2   
    44    20    21 1   
    45    20    52 1   
    46    21    22 1   
    47    21    53 1   
    48    21    54 1   
    49    22    23 ar  
    50    22    27 ar  
    51    23    24 ar  
    52    23    55 1   
    53    24    25 ar  
    54    24    56 1   
    55    25    26 ar  
    56    25    57 1   
    57    26    27 ar  
    58    26    58 1   
    59    27    28 1   
    60    29    30 1   
    61    30    31 ar  
    62    31    59 1   
@<TRIPOS>SUBSTRUCTURE
     1 JZL         1 TEMP              0 ****  ****    0 ROOT
