@<TRIPOS>MOLECULE
JZM
   31    33     1     0     0
SMALL
bcc


@<TRIPOS>ATOM
      1 C1           2.7630     1.3400     0.0680 ca         1 JZM       0.487600
      2 C2           1.8160     0.4280     0.6030 ca         1 JZM      -0.323600
      3 C3           2.0790    -0.9590     0.2620 ca         1 JZM       0.772200
      4 N4           3.0830    -1.2840    -0.5270 nb         1 JZM      -0.880000
      5 C5           3.8860    -0.3150    -0.9930 ca         1 JZM       0.954900
      6 N6           3.7910     0.9700    -0.7230 nb         1 JZM      -0.826000
      7 N7           1.3380    -1.9770     0.7050 nv         1 JZM      -0.960500
      8 C8           2.6430     2.7190     0.3630 ca         1 JZM      -0.175300
      9 C9           1.6190     3.1850     1.1370 ca         1 JZM      -0.108000
     10 C12          0.6560     2.2980     1.6400 ca         1 JZM      -0.113000
     11 C13          0.7460     0.9500     1.3790 ca         1 JZM       0.046900
     12 N14          4.9060    -0.7260    -1.7760 nv         1 JZM      -0.947500
     13 S20         -0.5440    -0.0320     2.1090 ss         1 JZM      -0.231800
     14 C22         -1.6280    -0.3540     0.7440 ca         1 JZM       0.023900
     15 C23         -1.4760     0.2140    -0.5150 ca         1 JZM      -0.112000
     16 C24         -2.3780    -0.0820    -1.5260 ca         1 JZM      -0.110500
     17 C25         -3.4330    -0.9430    -1.2730 ca         1 JZM       0.025400
     18 CL25        -4.5600    -1.3130    -2.5350 cl         1 JZM      -0.107400
     19 C26         -3.5980    -1.5130    -0.0190 ca         1 JZM      -0.110500
     20 C27         -2.6920    -1.2190     0.9860 ca         1 JZM      -0.112000
     21 HN7          0.6520    -1.8670     1.4320 hn         1 JZM       0.451300
     22 HN7A         1.6490    -2.9090     0.4860 hn         1 JZM       0.451300
     23 H8           3.3850     3.3900    -0.0470 ha         1 JZM       0.153000
     24 H9           1.5360     4.2410     1.3560 ha         1 JZM       0.138000
     25 H12         -0.1680     2.6760     2.2290 ha         1 JZM       0.148000
     26 HN14         4.8680    -1.6520    -2.1660 hn         1 JZM       0.436300
     27 HN1A         5.4120    -0.0350    -2.3020 hn         1 JZM       0.436300
     28 H23         -0.6620     0.8940    -0.7260 ha         1 JZM       0.147000
     29 H24         -2.2530     0.3640    -2.5040 ha         1 JZM       0.149500
     30 H26         -4.4230    -2.1840     0.1780 ha         1 JZM       0.149500
     31 H27         -2.8240    -1.6720     1.9610 ha         1 JZM       0.147000
@<TRIPOS>BOND
     1     1     2 ar  
     2     1     6 ar  
     3     1     8 ar  
     4     2     3 ar  
     5     2    11 ar  
     6     3     4 ar  
     7     3     7 1   
     8     4     5 ar  
     9     5     6 ar  
    10     5    12 1   
    11     7    21 1   
    12     7    22 1   
    13     8     9 ar  
    14     8    23 1   
    15     9    10 ar  
    16     9    24 1   
    17    10    11 ar  
    18    10    25 1   
    19    11    13 1   
    20    12    26 1   
    21    12    27 1   
    22    13    14 1   
    23    14    15 ar  
    24    14    20 ar  
    25    15    16 ar  
    26    15    28 1   
    27    16    17 ar  
    28    16    29 1   
    29    17    18 1   
    30    17    19 ar  
    31    19    20 ar  
    32    19    30 1   
    33    20    31 1   
@<TRIPOS>SUBSTRUCTURE
     1 JZM         1 TEMP              0 ****  ****    0 ROOT
