@<TRIPOS>MOLECULE
JZM
   31    33     1     0     0
SMALL
No Charge or Current Charge


@<TRIPOS>ATOM
      1 C1           2.7690     1.3450     0.0460 ca         1 JZM       0.094000
      2 C2           1.7830     0.4920     0.6200 ca         1 JZM      -0.193000
      3 C3           1.9290    -0.8940     0.3230 ca         1 JZM       0.443900
      4 N4           2.9150    -1.3750    -0.4370 nb         1 JZM      -0.354000
      5 C5           3.7720    -0.4760    -0.9100 ca         1 JZM       0.428900
      6 N6           3.7590     0.8440    -0.7210 nb         1 JZM      -0.300000
      7 N7           1.1020    -1.8810     0.7400 nv         1 JZM      -1.070900
      8 C8           2.7210     2.7310     0.2760 ca         1 JZM      -0.092000
      9 C9           1.7150     3.2910     1.0710 ca         1 JZM      -0.090000
     10 C12          0.7440     2.4640     1.6470 ca         1 JZM      -0.095000
     11 C13          0.7560     1.0740     1.4330 ca         1 JZM      -0.080000
     12 N14          4.7680    -0.9600    -1.6820 nv         1 JZM      -1.057900
     13 S20         -0.5640     0.1650     2.2520 ss         1 JZM       0.022000
     14 C22         -1.5950    -0.2870     0.8530 ca         1 JZM      -0.103000
     15 C23         -1.6650     0.5160    -0.3050 ca         1 JZM      -0.094000
     16 C24         -2.4780     0.1280    -1.3840 ca         1 JZM      -0.092500
     17 C25         -3.2270    -1.0580    -1.3090 ca         1 JZM       0.117000
     18 Cl25        -4.2440    -1.5410    -2.6610 cl         1 JZM      -0.199000
     19 C26         -3.1680    -1.8560    -0.1560 ca         1 JZM      -0.092500
     20 C27         -2.3550    -1.4700     0.9250 ca         1 JZM      -0.094000
     21 HN7          0.1610    -1.6000     0.9890 hn         1 JZM       0.506500
     22 HN7A         1.1900    -2.7820     0.2780 hn         1 JZM       0.506500
     23 H8           3.4750     3.3770    -0.1670 ha         1 JZM       0.135000
     24 H9           1.6900     4.3650     1.2440 ha         1 JZM       0.120000
     25 H12         -0.0330     2.9100     2.2650 ha         1 JZM       0.130000
     26 HN14         4.6740    -1.9070    -2.0390 hn         1 JZM       0.491500
     27 HN1A         5.2940    -0.3050    -2.2540 hn         1 JZM       0.491500
     28 H23         -1.0990     1.4410    -0.3760 ha         1 JZM       0.129000
     29 H24         -2.5300     0.7460    -2.2760 ha         1 JZM       0.131500
     30 H26         -3.7530    -2.7710    -0.0990 ha         1 JZM       0.131500
     31 H27         -2.3180    -2.0910     1.8180 ha         1 JZM       0.129000
@<TRIPOS>BOND
     1     1     2 ar  
     2     1     6 ar  
     3     1     8 ar  
     4     2     3 ar  
     5     2    11 ar  
     6     3     4 ar  
     7     3     7 1   
     8     4     5 ar  
     9     5     6 ar  
    10     5    12 1   
    11     7    21 1   
    12     7    22 1   
    13     8     9 ar  
    14     8    23 1   
    15     9    10 ar  
    16     9    24 1   
    17    10    11 ar  
    18    10    25 1   
    19    11    13 1   
    20    12    26 1   
    21    12    27 1   
    22    13    14 1   
    23    14    15 ar  
    24    14    20 ar  
    25    15    16 ar  
    26    15    28 1   
    27    16    17 ar  
    28    16    29 1   
    29    17    18 1   
    30    17    19 ar  
    31    19    20 ar  
    32    19    30 1   
    33    20    31 1   
@<TRIPOS>SUBSTRUCTURE
     1 JZM         1 TEMP              0 ****  ****    0 ROOT
