@<TRIPOS>MOLECULE
JZO
   47    50     1     0     0
SMALL
bcc


@<TRIPOS>ATOM
      1 C1           7.0100    -1.7570     0.3200 c3         1 JZO       0.120700
      2 O2           5.7160    -1.5090    -0.1680 os         1 JZO      -0.395600
      3 C3           4.7160    -1.9160     0.7390 c3         1 JZO       0.182700
      4 C4           3.3770    -1.6460     0.1180 ca         1 JZO      -0.091300
      5 C5           2.7940    -2.5800    -0.7320 ca         1 JZO      -0.105000
      6 C6           1.5760    -2.3050    -1.3370 ca         1 JZO      -0.137000
      7 C7           0.9340    -1.0990    -1.0990 ca         1 JZO      -0.115000
      8 C8           1.4950    -0.1510    -0.2400 ca         1 JZO      -0.014800
      9 C9           2.7260    -0.4410     0.3530 ca         1 JZO      -0.082000
     10 C10          0.8240     1.1180     0.0300 cc         1 JZO      -0.206400
     11 C11         -0.5140     1.3570     0.1870 cd         1 JZO       0.168800
     12 N12         -0.7450     2.6940     0.2710 na         1 JZO      -0.388400
     13 C13         -1.7940     3.3120     1.0610 c3         1 JZO       0.194100
     14 N14          0.4780     3.3140     0.2580 n          1 JZO      -0.338200
     15 C15          0.5800     4.7440     0.1270 c3         1 JZO       0.101300
     16 C16          1.4860     2.4070     0.0700 c          1 JZO       0.706700
     17 O17          2.6710     2.7010    -0.0720 o          1 JZO      -0.624500
     18 C18         -1.6160     0.3930     0.2520 ca         1 JZO      -0.050800
     19 C19         -1.5190    -0.7090     1.1370 ca         1 JZO      -0.093000
     20 C20         -2.5180    -1.6370     1.2100 ca         1 JZO      -0.159300
     21 C21         -3.6620    -1.5080     0.3940 ca         1 JZO       0.295300
     22 N22         -4.6470    -2.4330     0.4680 nb         1 JZO      -0.623000
     23 C23         -5.6760    -2.2620    -0.3120 ca         1 JZO       0.302900
     24 C24         -5.7750    -1.1640    -1.2030 ca         1 JZO       0.297900
     25 N25         -4.8440    -0.2590    -1.2930 nb         1 JZO      -0.620000
     26 C26         -3.7630    -0.4110    -0.4920 ca         1 JZO       0.279300
     27 C27         -2.7220     0.5370    -0.5490 ca         1 JZO      -0.138300
     28 H1           7.2210    -1.1990     1.2400 h1         1 JZO       0.027033
     29 H1A          7.1750    -2.8210     0.5270 h1         1 JZO       0.027033
     30 H1B          7.7220    -1.4410    -0.4420 h1         1 JZO       0.027033
     31 H3           4.8170    -2.9860     0.9680 h1         1 JZO       0.025200
     32 H3A          4.8090    -1.3740     1.6900 h1         1 JZO       0.025200
     33 H5           3.2900    -3.5260    -0.9190 ha         1 JZO       0.131000
     34 H6           1.1240    -3.0290    -2.0020 ha         1 JZO       0.130000
     35 H7          -0.0060    -0.8910    -1.5930 ha         1 JZO       0.130000
     36 H9           3.1780     0.2770     1.0260 ha         1 JZO       0.145000
     37 H13         -1.4700     3.4750     2.0900 h1         1 JZO       0.055700
     38 H13A        -2.0850     4.2610     0.6160 h1         1 JZO       0.055700
     39 H13B        -2.6630     2.6610     1.0640 h1         1 JZO       0.055700
     40 H15          0.2700     5.2550     1.0370 h1         1 JZO       0.052033
     41 H15A         1.6240     4.9780    -0.0610 h1         1 JZO       0.052033
     42 H15B        -0.0160     5.1050    -0.7120 h1         1 JZO       0.052033
     43 H19         -0.6440    -0.8040     1.7660 ha         1 JZO       0.154000
     44 H20         -2.4520    -2.4770     1.8890 ha         1 JZO       0.158000
     45 H23         -6.4760    -2.9920    -0.2680 h4         1 JZO       0.032100
     46 H24         -6.6490    -1.0600    -1.8350 h4         1 JZO       0.032100
     47 H27         -2.8090     1.3590    -1.2490 ha         1 JZO       0.162000
@<TRIPOS>BOND
     1     1     2 1   
     2     1    28 1   
     3     1    29 1   
     4     1    30 1   
     5     2     3 1   
     6     3     4 1   
     7     3    31 1   
     8     3    32 1   
     9     4     5 ar  
    10     4     9 ar  
    11     5     6 ar  
    12     5    33 1   
    13     6     7 ar  
    14     6    34 1   
    15     7     8 ar  
    16     7    35 1   
    17     8     9 ar  
    18     8    10 1   
    19     9    36 1   
    20    10    11 2   
    21    10    16 1   
    22    11    12 1   
    23    11    18 1   
    24    12    13 1   
    25    12    14 1   
    26    13    37 1   
    27    13    38 1   
    28    13    39 1   
    29    14    15 1   
    30    14    16 1   
    31    15    40 1   
    32    15    41 1   
    33    15    42 1   
    34    16    17 2   
    35    18    19 ar  
    36    18    27 ar  
    37    19    20 ar  
    38    19    43 1   
    39    20    21 ar  
    40    20    44 1   
    41    21    22 ar  
    42    21    26 ar  
    43    22    23 ar  
    44    23    24 ar  
    45    23    45 1   
    46    24    25 ar  
    47    24    46 1   
    48    25    26 ar  
    49    26    27 ar  
    50    27    47 1   
@<TRIPOS>SUBSTRUCTURE
     1 JZO         1 TEMP              0 ****  ****    0 ROOT
