@<TRIPOS>MOLECULE
JZO
   47    50     1     0     0
SMALL
No Charge or Current Charge


@<TRIPOS>ATOM
      1 C1           6.8250    -1.9160     1.1690 c3         1 JZO       0.143900
      2 O2           5.6590    -1.5440     0.4160 os         1 JZO      -0.442000
      3 C3           4.4330    -2.1170     0.8970 c3         1 JZO       0.205900
      4 C4           3.2910    -1.6370     0.0120 ca         1 JZO      -0.091300
      5 C5           2.8860    -2.3980    -1.1020 ca         1 JZO      -0.087000
      6 C6           1.8330    -1.9520    -1.9170 ca         1 JZO      -0.119000
      7 C7           1.1770    -0.7450    -1.6230 ca         1 JZO      -0.097000
      8 C8           1.5660     0.0190    -0.5060 ca         1 JZO      -0.014800
      9 C9           2.6310    -0.4260     0.3000 ca         1 JZO      -0.064000
     10 C10          0.8890     1.2760    -0.1960 cc         1 JZO      -0.206400
     11 C11         -0.4850     1.3720    -0.0620 cd         1 JZO       0.168800
     12 N12         -0.7540     2.7410     0.1620 na         1 JZO      -0.388400
     13 C13         -1.7980     3.3240     1.0400 c3         1 JZO       0.194100
     14 N14          0.4990     3.4620     0.1000 n          1 JZO      -0.271200
     15 C15          0.6160     4.9110    -0.1600 c3         1 JZO       0.101300
     16 C16          1.5360     2.5660    -0.1210 c          1 JZO       0.564200
     17 O17          2.7210     2.8410    -0.2700 o          1 JZO      -0.549000
     18 C18         -1.5010     0.2930     0.0630 ca         1 JZO      -0.050800
     19 C19         -1.1730    -1.0090     0.4980 ca         1 JZO      -0.075000
     20 C20         -2.1600    -2.0020     0.6040 ca         1 JZO      -0.076000
     21 C21         -3.5010    -1.7320     0.2850 ca         1 JZO       0.230000
     22 N22         -4.4290    -2.7200     0.4000 nb         1 JZO      -0.623000
     23 C23         -5.7070    -2.3860     0.0750 ca         1 JZO       0.302900
     24 C24         -6.0570    -1.0840    -0.3580 ca         1 JZO       0.297900
     25 N25         -5.1370    -0.0890    -0.4740 nb         1 JZO      -0.620000
     26 C26         -3.8540    -0.4120    -0.1510 ca         1 JZO       0.214000
     27 C27         -2.8500     0.5680    -0.2490 ca         1 JZO      -0.055000
     28 H1           6.7310    -1.5970     2.2150 h1         1 JZO       0.027033
     29 H1A          6.9700    -3.0040     1.1490 h1         1 JZO       0.027033
     30 H1B          7.7200    -1.4430     0.7460 h1         1 JZO       0.027033
     31 H3           4.4820    -3.2130     0.8710 h1         1 JZO       0.025200
     32 H3A          4.2440    -1.8110     1.9350 h1         1 JZO       0.025200
     33 H5           3.3900    -3.3330    -1.3370 ha         1 JZO       0.113000
     34 H6           1.5260    -2.5400    -2.7790 ha         1 JZO       0.112000
     35 H7           0.3650    -0.4040    -2.2610 ha         1 JZO       0.112000
     36 H9           2.9410     0.1670     1.1570 ha         1 JZO       0.127000
     37 H13         -1.3590     4.0700     1.7150 h1         1 JZO       0.055700
     38 H13A        -2.5690     3.8070     0.4270 h1         1 JZO       0.055700
     39 H13B        -2.2620     2.5380     1.6490 h1         1 JZO       0.055700
     40 H15          0.9920     5.4160     0.7380 h1         1 JZO       0.052033
     41 H15A         1.3110     5.0870    -0.9910 h1         1 JZO       0.052033
     42 H15B        -0.3640     5.3270    -0.4250 h1         1 JZO       0.052033
     43 H19         -0.1600    -1.2620     0.7960 ha         1 JZO       0.136000
     44 H20         -1.8840    -2.9960     0.9470 ha         1 JZO       0.140000
     45 H23         -6.4600    -3.1680     0.1610 h4         1 JZO       0.032100
     46 H24         -7.0860    -0.8380    -0.6140 h4         1 JZO       0.032100
     47 H27         -3.1310     1.5550    -0.6050 ha         1 JZO       0.144000
@<TRIPOS>BOND
     1     1     2 1   
     2     1    28 1   
     3     1    29 1   
     4     1    30 1   
     5     2     3 1   
     6     3     4 1   
     7     3    31 1   
     8     3    32 1   
     9     4     5 ar  
    10     4     9 ar  
    11     5     6 ar  
    12     5    33 1   
    13     6     7 ar  
    14     6    34 1   
    15     7     8 ar  
    16     7    35 1   
    17     8     9 ar  
    18     8    10 1   
    19     9    36 1   
    20    10    11 2   
    21    10    16 1   
    22    11    12 1   
    23    11    18 1   
    24    12    13 1   
    25    12    14 1   
    26    13    37 1   
    27    13    38 1   
    28    13    39 1   
    29    14    15 1   
    30    14    16 1   
    31    15    40 1   
    32    15    41 1   
    33    15    42 1   
    34    16    17 2   
    35    18    19 ar  
    36    18    27 ar  
    37    19    20 ar  
    38    19    43 1   
    39    20    21 ar  
    40    20    44 1   
    41    21    22 ar  
    42    21    26 ar  
    43    22    23 ar  
    44    23    24 ar  
    45    23    45 1   
    46    24    25 ar  
    47    24    46 1   
    48    25    26 ar  
    49    26    27 ar  
    50    27    47 1   
@<TRIPOS>SUBSTRUCTURE
     1 JZO         1 TEMP              0 ****  ****    0 ROOT
