@<TRIPOS>MOLECULE
JZP
   80    84     1     0     0
SMALL
bcc


@<TRIPOS>ATOM
      1 CL1          5.7160     1.3290     1.7120 cl         1 JZP      -0.079900
      2 O2           5.2420    -0.7900    -0.2570 os         1 JZP      -0.282900
      3 CL2          6.9270    -1.9320    -2.3640 cl         1 JZP      -0.079900
      4 O8           2.7550    -1.2670     0.5040 o          1 JZP      -0.564100
      5 C12          2.8860    -0.5790    -0.4880 c          1 JZP       0.675100
      6 C21          4.2410    -0.1020    -0.9790 c3         1 JZP       0.049400
      7 C40          9.0420     0.8360    -0.4290 ca         1 JZP      -0.116000
      8 C41          8.1360     1.3060     0.5100 ca         1 JZP      -0.114000
      9 C42          6.8610     0.7670     0.5490 ca         1 JZP       0.010900
     10 C45          6.4720    -0.2420    -0.3290 ca         1 JZP       0.110100
     11 C46          7.4010    -0.6870    -1.2660 ca         1 JZP       0.010900
     12 C47          8.6830    -0.1650    -1.3180 ca         1 JZP      -0.114000
     13 C16         -1.7650    -1.1350    -1.5140 c          1 JZP       0.643100
     14 N2           1.8680    -0.1440    -1.2550 ns         1 JZP      -0.573900
     15 O3          -2.6540    -0.4690    -2.0270 o          1 JZP      -0.605100
     16 C14         -0.3230    -0.9380    -1.9710 c3         1 JZP       0.069100
     17 C22          0.6850     1.7560     0.6370 ca         1 JZP      -0.080300
     18 C15         -0.0680     1.1570    -0.5150 c3         1 JZP      -0.057100
     19 C25          2.1480     2.7510     2.8050 ca         1 JZP      -0.126000
     20 C13          0.4820    -0.2350    -0.8620 c3         1 JZP       0.092700
     21 O5          -0.3020    -0.2070    -3.1600 oh         1 JZP      -0.592800
     22 C23          1.8070     2.5550     0.4320 ca         1 JZP      -0.122000
     23 C27          0.3020     1.4690     1.9460 ca         1 JZP      -0.122000
     24 C24          2.5370     3.0470     1.5060 ca         1 JZP      -0.126500
     25 C26          1.0240     1.9630     3.0220 ca         1 JZP      -0.126500
     26 C20         -3.8440    -0.7620     0.5370 c          1 JZP       0.681100
     27 N3          -2.0140    -1.9960    -0.5110 n          1 JZP      -0.453800
     28 O4          -3.0840    -0.0040     1.1160 o          1 JZP      -0.610100
     29 C17         -3.3760    -2.1040    -0.0240 c5         1 JZP       0.026700
     30 C18         -3.4220    -3.2280     1.0430 c5         1 JZP       0.059100
     31 C19         -1.0900    -2.9880     0.0030 c5         1 JZP       0.190100
     32 C29         -3.0610    -2.7730     2.4530 c3         1 JZP      -0.086100
     33 C30         -4.7750    -3.9240     1.0460 c3         1 JZP      -0.086100
     34 S1          -2.1430    -4.3920     0.4250 ss         1 JZP      -0.331200
     35 N4          -5.1540    -0.5410     0.3940 ns         1 JZP      -0.543900
     36 O7          -7.6620    -0.8530     1.3380 oh         1 JZP      -0.591800
     37 C31         -5.8050     0.6440     0.9180 c5         1 JZP       0.174000
     38 C32         -5.6730     1.8170    -0.0220 ca         1 JZP      -0.122300
     39 C33         -4.5990     2.6770    -0.1880 ca         1 JZP      -0.079000
     40 C34         -4.6920     3.6860    -1.1410 ca         1 JZP      -0.132000
     41 C35         -7.3330     0.4550     0.9630 c5         1 JZP       0.126100
     42 C36         -6.8230     1.9500    -0.7950 ca         1 JZP      -0.082300
     43 C37         -6.9170     2.9570    -1.7440 ca         1 JZP      -0.118000
     44 C38         -5.8420     3.8230    -1.9120 ca         1 JZP      -0.118000
     45 C39         -7.8260     0.8950    -0.4270 c5         1 JZP      -0.074100
     46 H21          4.3020     0.9800    -0.8140 h1         1 JZP       0.053200
     47 H21A         4.3420    -0.2760    -2.0550 h1         1 JZP       0.053200
     48 H40         10.0400     1.2490    -0.4640 ha         1 JZP       0.142000
     49 H41          8.4170     2.0850     1.2040 ha         1 JZP       0.152000
     50 H47          9.3890    -0.5320    -2.0500 ha         1 JZP       0.152000
     51 HN2          2.0800     0.4360    -2.0540 hn         1 JZP       0.318500
     52 H14          0.1500    -1.9070    -2.1640 h1         1 JZP       0.085700
     53 H15         -0.0020     1.8020    -1.3940 hc         1 JZP       0.066700
     54 H15A        -1.1250     1.0750    -0.2540 hc         1 JZP       0.066700
     55 H25          2.7160     3.1330     3.6440 ha         1 JZP       0.128000
     56 H13          0.4590    -0.8550     0.0350 h1         1 JZP       0.091700
     57 HO5         -1.1450     0.2660    -3.2210 ho         1 JZP       0.436000
     58 H23          2.1150     2.8000    -0.5780 ha         1 JZP       0.132000
     59 H27         -0.5740     0.8540     2.1180 ha         1 JZP       0.132000
     60 H24          3.4090     3.6620     1.3270 ha         1 JZP       0.129000
     61 H26          0.7090     1.7350     4.0320 ha         1 JZP       0.129000
     62 H17         -4.0270    -2.4040    -0.8530 h1         1 JZP       0.080700
     63 H19         -0.5570    -2.6300     0.8860 h2         1 JZP       0.088200
     64 H19A        -0.3610    -3.2970    -0.7430 h2         1 JZP       0.088200
     65 H29         -2.1000    -2.2630     2.5030 hc         1 JZP       0.053867
     66 H29A        -3.8180    -2.0940     2.8510 hc         1 JZP       0.053867
     67 H29B        -3.0210    -3.6390     3.1120 hc         1 JZP       0.053867
     68 H30         -4.7700    -4.7750     1.7270 hc         1 JZP       0.053867
     69 H30A        -5.5510    -3.2380     1.3900 hc         1 JZP       0.053867
     70 H30B        -5.0480    -4.2810     0.0520 hc         1 JZP       0.053867
     71 HN4         -5.6980    -1.1790    -0.1660 hn         1 JZP       0.328500
     72 HO7         -8.6210    -0.9290     1.3670 ho         1 JZP       0.412000
     73 H31         -5.3960     0.8500     1.9090 h1         1 JZP       0.089700
     74 H33         -3.7050     2.5670     0.4120 ha         1 JZP       0.152000
     75 H34         -3.8660     4.3710    -1.2820 ha         1 JZP       0.133000
     76 H35         -7.7110     1.1850     1.6910 h1         1 JZP       0.047700
     77 H37         -7.8110     3.0710    -2.3440 ha         1 JZP       0.132000
     78 H38         -5.9020     4.6150    -2.6470 ha         1 JZP       0.130000
     79 H39         -7.7910     0.0600    -1.1360 hc         1 JZP       0.059700
     80 H39A        -8.8540     1.2600    -0.4090 hc         1 JZP       0.059700
@<TRIPOS>BOND
     1     1     9 1   
     2     2     6 1   
     3     2    10 1   
     4     3    11 1   
     5     4     5 2   
     6     5     6 1   
     7     5    14 1   
     8     6    46 1   
     9     6    47 1   
    10     7     8 ar  
    11     7    12 ar  
    12     7    48 1   
    13     8     9 ar  
    14     8    49 1   
    15     9    10 ar  
    16    10    11 ar  
    17    11    12 ar  
    18    12    50 1   
    19    13    15 2   
    20    13    16 1   
    21    13    27 1   
    22    14    20 1   
    23    14    51 1   
    24    16    20 1   
    25    16    21 1   
    26    16    52 1   
    27    17    18 1   
    28    17    22 ar  
    29    17    23 ar  
    30    18    20 1   
    31    18    53 1   
    32    18    54 1   
    33    19    24 ar  
    34    19    25 ar  
    35    19    55 1   
    36    20    56 1   
    37    21    57 1   
    38    22    24 ar  
    39    22    58 1   
    40    23    25 ar  
    41    23    59 1   
    42    24    60 1   
    43    25    61 1   
    44    26    28 2   
    45    26    29 1   
    46    26    35 1   
    47    27    29 1   
    48    27    31 1   
    49    29    30 1   
    50    29    62 1   
    51    30    32 1   
    52    30    33 1   
    53    30    34 1   
    54    31    34 1   
    55    31    63 1   
    56    31    64 1   
    57    32    65 1   
    58    32    66 1   
    59    32    67 1   
    60    33    68 1   
    61    33    69 1   
    62    33    70 1   
    63    35    37 1   
    64    35    71 1   
    65    36    41 1   
    66    36    72 1   
    67    37    38 1   
    68    37    41 1   
    69    37    73 1   
    70    38    39 ar  
    71    38    42 ar  
    72    39    40 ar  
    73    39    74 1   
    74    40    44 ar  
    75    40    75 1   
    76    41    45 1   
    77    41    76 1   
    78    42    43 ar  
    79    42    45 1   
    80    43    44 ar  
    81    43    77 1   
    82    44    78 1   
    83    45    79 1   
    84    45    80 1   
@<TRIPOS>SUBSTRUCTURE
     1 JZP         1 TEMP              0 ****  ****    0 ROOT
