@<TRIPOS>MOLECULE
JZP
   80    84     1     0     0
SMALL
No Charge or Current Charge


@<TRIPOS>ATOM
      1 Cl1          6.2740     2.0800     1.0670 cl         1 JZP      -0.171500
      2 O2           5.4580    -0.6730     0.0690 os         1 JZP      -0.306100
      3 Cl2          7.0210    -2.8740    -1.2750 cl         1 JZP      -0.171500
      4 O8           2.7610    -1.1480     0.6150 o          1 JZP      -0.564100
      5 C12          3.0230    -0.4920    -0.3860 c          1 JZP       0.608100
      6 C21          4.4620    -0.1720    -0.8490 c3         1 JZP       0.072600
      7 C40          9.4990     0.2570    -0.5770 ca         1 JZP      -0.098000
      8 C41          8.6540     1.1940     0.0450 ca         1 JZP      -0.096000
      9 C42          7.2990     0.8880     0.2640 ca         1 JZP       0.102500
     10 C45          6.7830    -0.3620    -0.1440 ca         1 JZP       0.110100
     11 C46          7.6350    -1.3020    -0.7600 ca         1 JZP       0.102500
     12 C47          8.9890    -0.9910    -0.9780 ca         1 JZP      -0.096000
     13 C16         -1.6890    -0.8690    -1.7390 c          1 JZP       0.576100
     14 N2           2.0350     0.0330    -1.1950 ns         1 JZP      -0.506900
     15 O3          -2.5860    -0.2450    -2.2960 o          1 JZP      -0.605100
     16 C14         -0.1950    -0.5910    -2.1090 c3         1 JZP       0.092300
     17 C22          0.8240     1.8740     0.8150 ca         1 JZP      -0.080300
     18 C15          0.1050     1.3950    -0.4410 c3         1 JZP      -0.057100
     19 C25          2.1760     2.7180     3.1410 ca         1 JZP      -0.108000
     20 C13          0.5950    -0.0030    -0.9030 c3         1 JZP       0.092700
     21 O5          -0.0820     0.2830    -3.2650 oh         1 JZP      -0.655000
     22 C23          1.9360     2.7360     0.7190 ca         1 JZP      -0.104000
     23 C27          0.3930     1.4400     2.0840 ca         1 JZP      -0.104000
     24 C24          2.6100     3.1550     1.8780 ca         1 JZP      -0.108500
     25 C26          1.0670     1.8610     3.2430 ca         1 JZP      -0.108500
     26 C20         -3.9240    -0.5660     0.4420 c          1 JZP       0.614100
     27 N3          -1.9830    -1.7900    -0.7090 n          1 JZP      -0.386800
     28 O4          -3.2630     0.3390     0.9390 o          1 JZP      -0.610100
     29 C17         -3.3800    -1.8990    -0.1650 c5         1 JZP       0.026700
     30 C18         -3.3110    -2.9990     0.9570 c5         1 JZP       0.107000
     31 C19         -1.1160    -2.9680    -0.4610 c5         1 JZP       0.238000
     32 C29         -2.6620    -2.5500     2.2970 c3         1 JZP      -0.086100
     33 C30         -4.6820    -3.6530     1.2600 c3         1 JZP      -0.086100
     34 S1          -2.2420    -4.2830     0.1830 ss         1 JZP      -0.427000
     35 N4          -5.2980    -0.5320     0.3230 ns         1 JZP      -0.476900
     36 O7          -7.7250    -1.2580     1.2210 oh         1 JZP      -0.654000
     37 C31         -6.0180     0.6190     0.8770 c5         1 JZP       0.174000
     38 C32         -6.1510     1.7760    -0.0810 ca         1 JZP      -0.122300
     39 C33         -5.2040     2.7870    -0.3160 ca         1 JZP      -0.061000
     40 C34         -5.4990     3.7940    -1.2560 ca         1 JZP      -0.114000
     41 C35         -7.5430     0.1480     0.9850 c5         1 JZP       0.149300
     42 C36         -7.3550     1.7640    -0.7580 ca         1 JZP      -0.082300
     43 C37         -7.6650     2.7570    -1.7010 ca         1 JZP      -0.100000
     44 C38         -6.7280     3.7790    -1.9480 ca         1 JZP      -0.100000
     45 C39         -8.2180     0.5930    -0.3710 c5         1 JZP      -0.074100
     46 H21          4.5380     0.9170    -0.9490 h1         1 JZP       0.053200
     47 H21A         4.6010    -0.6100    -1.8450 h1         1 JZP       0.053200
     48 H40         10.5470     0.4970    -0.7460 ha         1 JZP       0.124000
     49 H41          9.0500     2.1570     0.3600 ha         1 JZP       0.134000
     50 H47          9.6420    -1.7160    -1.4560 ha         1 JZP       0.134000
     51 HN2          2.3350     0.5390    -2.0210 hn         1 JZP       0.318500
     52 H14          0.2490    -1.5650    -2.3530 h1         1 JZP       0.085700
     53 H15          0.2440     2.1180    -1.2530 hc         1 JZP       0.066700
     54 H15A        -0.9740     1.3610    -0.2500 hc         1 JZP       0.066700
     55 H25          2.6990     3.0420     4.0390 ha         1 JZP       0.110000
     56 H13          0.4400    -0.6800    -0.0530 h1         1 JZP       0.091700
     57 HO5         -1.0030     0.5710    -3.4770 ho         1 JZP       0.475000
     58 H23          2.2820     3.0750    -0.2550 ha         1 JZP       0.114000
     59 H27         -0.4620     0.7730     2.1700 ha         1 JZP       0.114000
     60 H24          3.4700     3.8160     1.7980 ha         1 JZP       0.111000
     61 H26          0.7300     1.5220     4.2210 ha         1 JZP       0.111000
     62 H17         -4.0550    -2.2130    -0.9720 h1         1 JZP       0.080700
     63 H19         -0.3760    -2.6870     0.2990 h2         1 JZP       0.088200
     64 H19A        -0.6580    -3.2880    -1.4050 h2         1 JZP       0.088200
     65 H29         -1.7020    -2.0450     2.1420 hc         1 JZP       0.053867
     66 H29A        -3.3110    -1.8560     2.8450 hc         1 JZP       0.053867
     67 H29B        -2.4800    -3.4100     2.9540 hc         1 JZP       0.053867
     68 H30         -4.5690    -4.5190     1.9230 hc         1 JZP       0.053867
     69 H30A        -5.3640    -2.9510     1.7530 hc         1 JZP       0.053867
     70 H30B        -5.1680    -4.0030     0.3410 hc         1 JZP       0.053867
     71 HN4         -5.7740    -1.3410    -0.0560 hn         1 JZP       0.328500
     72 HO7         -8.6890    -1.4040     1.3460 ho         1 JZP       0.451000
     73 H31         -5.6320     0.9380     1.8550 h1         1 JZP       0.089700
     74 H33         -4.2560     2.7930     0.2190 ha         1 JZP       0.134000
     75 H34         -4.7760     4.5830    -1.4490 ha         1 JZP       0.115000
     76 H35         -8.0090     0.7170     1.8020 h1         1 JZP       0.047700
     77 H37         -8.6130     2.7370    -2.2330 ha         1 JZP       0.114000
     78 H38         -6.9520     4.5570    -2.6740 ha         1 JZP       0.112000
     79 H39         -8.1710    -0.1970    -1.1300 hc         1 JZP       0.059700
     80 H39A        -9.2720     0.8630    -0.2370 hc         1 JZP       0.059700
@<TRIPOS>BOND
     1     1     9 1   
     2     2     6 1   
     3     2    10 1   
     4     3    11 1   
     5     4     5 2   
     6     5     6 1   
     7     5    14 1   
     8     6    46 1   
     9     6    47 1   
    10     7     8 ar  
    11     7    12 ar  
    12     7    48 1   
    13     8     9 ar  
    14     8    49 1   
    15     9    10 ar  
    16    10    11 ar  
    17    11    12 ar  
    18    12    50 1   
    19    13    15 2   
    20    13    16 1   
    21    13    27 1   
    22    14    20 1   
    23    14    51 1   
    24    16    20 1   
    25    16    21 1   
    26    16    52 1   
    27    17    18 1   
    28    17    22 ar  
    29    17    23 ar  
    30    18    20 1   
    31    18    53 1   
    32    18    54 1   
    33    19    24 ar  
    34    19    25 ar  
    35    19    55 1   
    36    20    56 1   
    37    21    57 1   
    38    22    24 ar  
    39    22    58 1   
    40    23    25 ar  
    41    23    59 1   
    42    24    60 1   
    43    25    61 1   
    44    26    28 2   
    45    26    29 1   
    46    26    35 1   
    47    27    29 1   
    48    27    31 1   
    49    29    30 1   
    50    29    62 1   
    51    30    32 1   
    52    30    33 1   
    53    30    34 1   
    54    31    34 1   
    55    31    63 1   
    56    31    64 1   
    57    32    65 1   
    58    32    66 1   
    59    32    67 1   
    60    33    68 1   
    61    33    69 1   
    62    33    70 1   
    63    35    37 1   
    64    35    71 1   
    65    36    41 1   
    66    36    72 1   
    67    37    38 1   
    68    37    41 1   
    69    37    73 1   
    70    38    39 ar  
    71    38    42 ar  
    72    39    40 ar  
    73    39    74 1   
    74    40    44 ar  
    75    40    75 1   
    76    41    45 1   
    77    41    76 1   
    78    42    43 ar  
    79    42    45 1   
    80    43    44 ar  
    81    43    77 1   
    82    44    78 1   
    83    45    79 1   
    84    45    80 1   
@<TRIPOS>SUBSTRUCTURE
     1 JZP         1 TEMP              0 ****  ****    0 ROOT
