@<TRIPOS>MOLECULE
JZQ
   80    84     1     0     0
SMALL
abcg2


@<TRIPOS>ATOM
      1 F1           6.7910     1.4930     1.2510 f          1 JZQ      -0.160000
      2 F2           6.9940    -1.8910    -1.9580 f          1 JZQ      -0.160000
      3 O2           5.5950    -0.5920    -0.0290 os         1 JZQ      -0.295100
      4 O8           3.1100    -1.1150     0.6990 o          1 JZQ      -0.565100
      5 C12          3.2400    -0.4060    -0.2800 c          1 JZQ       0.610100
      6 C21          4.5930     0.1020    -0.7440 c3         1 JZQ       0.067600
      7 C40          9.4850     0.5070    -0.9350 ca         1 JZQ      -0.059000
      8 C41          8.7870     1.2070     0.0400 ca         1 JZQ      -0.164500
      9 C42          7.4870     0.8360     0.3170 ca         1 JZQ       0.185000
     10 C45          6.8570    -0.2140    -0.3410 ca         1 JZQ       0.008100
     11 C46          7.5900    -0.8830    -1.3130 ca         1 JZQ       0.185000
     12 C47          8.8930    -0.5450    -1.6190 ca         1 JZQ      -0.164500
     13 C16         -1.3780    -1.0120    -1.4700 c          1 JZQ       0.576100
     14 N2           2.2270     0.0270    -1.0520 ns         1 JZQ      -0.505900
     15 O3          -2.2600    -0.3380    -1.9830 o          1 JZQ      -0.605100
     16 C14          0.0750    -0.7700    -1.8680 c3         1 JZQ       0.091300
     17 C22          0.9410     1.7820     0.9250 ca         1 JZQ      -0.082300
     18 C15          0.2440     1.2440    -0.2910 c3         1 JZQ      -0.056100
     19 C25          2.2980     2.6570     3.2110 ca         1 JZQ      -0.105000
     20 C13          0.8350    -0.1150    -0.6990 c3         1 JZQ       0.092700
     21 O5           0.1200     0.0250    -3.0140 oh         1 JZQ      -0.656000
     22 C23          2.0680     2.5920     0.8170 ca         1 JZQ      -0.105000
     23 C27          0.4980     1.4220     2.1970 ca         1 JZQ      -0.105000
     24 C24          2.7450     3.0250     1.9500 ca         1 JZQ      -0.107500
     25 C26          1.1680     1.8570     3.3320 ca         1 JZQ      -0.107500
     26 C20         -3.5450    -0.7800     0.5140 c          1 JZQ       0.615100
     27 N3          -1.6450    -1.9220    -0.5170 n          1 JZQ      -0.385800
     28 O4          -2.8290    -0.0320     1.1570 o          1 JZQ      -0.608100
     29 C17         -3.0220    -2.0820    -0.0890 c5         1 JZQ       0.026700
     30 C18         -3.0850    -3.2560     0.9220 c5         1 JZQ       0.107000
     31 C19         -0.7200    -2.9220    -0.0180 c5         1 JZQ       0.238000
     32 C29         -4.4200    -3.9820     0.8350 c3         1 JZQ      -0.085600
     33 C30         -2.7900    -2.8650     2.3660 c3         1 JZQ      -0.085600
     34 S1          -1.7580    -4.3640     0.3010 ss         1 JZQ      -0.428000
     35 N4          -4.8540    -0.5840     0.3270 ns         1 JZQ      -0.476900
     36 O7          -7.3800    -1.0030     1.1740 oh         1 JZQ      -0.654000
     37 C31         -5.5570     0.5620     0.8690 c5         1 JZQ       0.174000
     38 C32         -5.4300     1.7710    -0.0250 ca         1 JZQ      -0.123300
     39 C33         -4.3750     2.6640    -0.1290 ca         1 JZQ      -0.061000
     40 C34         -4.4670     3.7020    -1.0490 ca         1 JZQ      -0.113000
     41 C35         -7.0800     0.3270     0.8570 c5         1 JZQ       0.149300
     42 C36         -6.5590     1.8990    -0.8300 ca         1 JZQ      -0.082300
     43 C37         -6.6520     2.9350    -1.7460 ca         1 JZQ      -0.100000
     44 C38         -5.5960     3.8350    -1.8510 ca         1 JZQ      -0.100000
     45 C39         -7.5410     0.8030    -0.5330 c5         1 JZQ      -0.074100
     46 H21          4.6430     1.1810    -0.5540 h1         1 JZQ       0.050200
     47 H21A         4.6990    -0.0430    -1.8240 h1         1 JZQ       0.050200
     48 H40         10.5040     0.7840    -1.1630 ha         1 JZQ       0.124000
     49 H41          9.2430     2.0270     0.5780 ha         1 JZQ       0.138500
     50 H47          9.4310    -1.0940    -2.3800 ha         1 JZQ       0.138500
     51 HN2          2.4390     0.6260    -1.8370 hn         1 JZQ       0.319500
     52 H14          0.5680    -1.7210    -2.0980 h1         1 JZQ       0.085700
     53 H15          0.3350     1.9430    -1.1260 hc         1 JZQ       0.066700
     54 H15A        -0.8200     1.1310    -0.0810 hc         1 JZQ       0.066700
     55 H25          2.8230     2.9930     4.0960 ha         1 JZQ       0.111000
     56 H13          0.8020    -0.7840     0.1620 h1         1 JZQ       0.091700
     57 HO5         -0.7310     0.4840    -3.0760 ho         1 JZQ       0.475000
     58 H23          2.4200     2.8930    -0.1630 ha         1 JZQ       0.113000
     59 H27         -0.3810     0.7950     2.2960 ha         1 JZQ       0.113000
     60 H24          3.6200     3.6540     1.8470 ha         1 JZQ       0.110500
     61 H26          0.8070     1.5740     4.3120 ha         1 JZQ       0.110500
     62 H17         -3.6330    -2.3600    -0.9550 h1         1 JZQ       0.080700
     63 H19         -0.2260    -2.5970     0.9000 h2         1 JZQ       0.088200
     64 H19A         0.0400    -3.1800    -0.7510 h2         1 JZQ       0.088200
     65 H29         -4.4150    -4.8700     1.4680 hc         1 JZQ       0.054033
     66 H29A        -5.2270    -3.3390     1.1890 hc         1 JZQ       0.054033
     67 H29B        -4.6490    -4.2890    -0.1860 hc         1 JZQ       0.054033
     68 H30         -1.8350    -2.3560     2.4840 hc         1 JZQ       0.054033
     69 H30A        -3.5680    -2.2090     2.7610 hc         1 JZQ       0.054033
     70 H30B        -2.7760    -3.7620     2.9840 hc         1 JZQ       0.054033
     71 HN4         -5.3560    -1.2100    -0.2840 hn         1 JZQ       0.327500
     72 HO7         -8.3370    -1.1040     1.1860 ho         1 JZQ       0.451000
     73 H31         -5.1880     0.7440     1.8790 h1         1 JZQ       0.089700
     74 H33         -3.4970     2.5570     0.4950 ha         1 JZQ       0.134000
     75 H34         -3.6560     4.4120    -1.1420 ha         1 JZQ       0.115000
     76 H35         -7.5020     1.0190     1.5980 h1         1 JZQ       0.047700
     77 H37         -7.5300     3.0470    -2.3700 ha         1 JZQ       0.114000
     78 H38         -5.6560     4.6510    -2.5610 ha         1 JZQ       0.112000
     79 H39         -7.4580    -0.0040    -1.2680 hc         1 JZQ       0.059200
     80 H39A        -8.5810     1.1370    -0.5370 hc         1 JZQ       0.059200
@<TRIPOS>BOND
     1     1     9 1   
     2     2    11 1   
     3     3     6 1   
     4     3    10 1   
     5     4     5 2   
     6     5     6 1   
     7     5    14 1   
     8     6    46 1   
     9     6    47 1   
    10     7     8 ar  
    11     7    12 ar  
    12     7    48 1   
    13     8     9 ar  
    14     8    49 1   
    15     9    10 ar  
    16    10    11 ar  
    17    11    12 ar  
    18    12    50 1   
    19    13    15 2   
    20    13    16 1   
    21    13    27 1   
    22    14    20 1   
    23    14    51 1   
    24    16    20 1   
    25    16    21 1   
    26    16    52 1   
    27    17    18 1   
    28    17    22 ar  
    29    17    23 ar  
    30    18    20 1   
    31    18    53 1   
    32    18    54 1   
    33    19    24 ar  
    34    19    25 ar  
    35    19    55 1   
    36    20    56 1   
    37    21    57 1   
    38    22    24 ar  
    39    22    58 1   
    40    23    25 ar  
    41    23    59 1   
    42    24    60 1   
    43    25    61 1   
    44    26    28 2   
    45    26    29 1   
    46    26    35 1   
    47    27    29 1   
    48    27    31 1   
    49    29    30 1   
    50    29    62 1   
    51    30    32 1   
    52    30    33 1   
    53    30    34 1   
    54    31    34 1   
    55    31    63 1   
    56    31    64 1   
    57    32    65 1   
    58    32    66 1   
    59    32    67 1   
    60    33    68 1   
    61    33    69 1   
    62    33    70 1   
    63    35    37 1   
    64    35    71 1   
    65    36    41 1   
    66    36    72 1   
    67    37    38 1   
    68    37    41 1   
    69    37    73 1   
    70    38    39 ar  
    71    38    42 ar  
    72    39    40 ar  
    73    39    74 1   
    74    40    44 ar  
    75    40    75 1   
    76    41    45 1   
    77    41    76 1   
    78    42    43 ar  
    79    42    45 1   
    80    43    44 ar  
    81    43    77 1   
    82    44    78 1   
    83    45    79 1   
    84    45    80 1   
@<TRIPOS>SUBSTRUCTURE
     1 JZQ         1 TEMP              0 ****  ****    0 ROOT
