@<TRIPOS>MOLECULE
JZQ
   80    84     1     0     0
SMALL
No Charge or Current Charge


@<TRIPOS>ATOM
      1 F1           7.0450    -3.3920     0.2270 f          1 JZQ      -0.160000
      2 F2           7.1960     1.1930    -1.2670 f          1 JZQ      -0.160000
      3 O2           5.6340    -1.1510    -0.4230 os         1 JZQ      -0.295100
      4 O8           2.8710    -1.4790    -0.1630 o          1 JZQ      -0.565100
      5 C12          3.2740    -0.3850    -0.5400 c          1 JZQ       0.610100
      6 C21          4.7670    -0.0370    -0.7370 c3         1 JZQ       0.067600
      7 C40          9.8600    -1.2200    -0.6270 ca         1 JZQ      -0.059000
      8 C41          9.1260    -2.3460    -0.2240 ca         1 JZQ      -0.164500
      9 C42          7.7240    -2.2900    -0.1670 ca         1 JZQ       0.185000
     10 C45          7.0240    -1.1130    -0.5100 ca         1 JZQ       0.008100
     11 C46          7.7790     0.0230    -0.9190 ca         1 JZQ       0.185000
     12 C47          9.1830    -0.0400    -0.9730 ca         1 JZQ      -0.164500
     13 C16         -1.1430    -0.6930    -1.5610 c          1 JZQ       0.576100
     14 N2           2.4010     0.6440    -0.8250 ns         1 JZQ      -0.505900
     15 O3          -2.0890    -0.2480    -2.2040 o          1 JZQ      -0.605100
     16 C14          0.3140    -0.2390    -1.8920 c3         1 JZQ       0.091300
     17 C22          0.8270     2.6140     0.8030 ca         1 JZQ      -0.082300
     18 C15          0.3160     1.9550    -0.4730 c3         1 JZQ      -0.056100
     19 C25          1.7760     3.8090     3.1740 ca         1 JZQ      -0.105000
     20 C13          0.9400     0.5540    -0.7020 c3         1 JZQ       0.092700
     21 O5           0.3670     0.5410    -3.1180 oh         1 JZQ      -0.656000
     22 C23          1.7790     3.6510     0.7440 ca         1 JZQ      -0.105000
     23 C27          0.3510     2.1820     2.0560 ca         1 JZQ      -0.105000
     24 C24          2.2520     4.2460     1.9260 ca         1 JZQ      -0.107500
     25 C26          0.8250     2.7770     3.2380 ca         1 JZQ      -0.107500
     26 C20         -3.4800    -0.5060     0.5150 c          1 JZQ       0.615100
     27 N3          -1.3590    -1.5590    -0.4670 n          1 JZQ      -0.385800
     28 O4          -2.9550     0.5180     0.9360 o          1 JZQ      -0.608100
     29 C17         -2.7510    -1.8060     0.0450 c5         1 JZQ       0.026700
     30 C18         -2.5840    -2.7890     1.2610 c5         1 JZQ       0.107000
     31 C19         -0.3530    -2.5810    -0.0830 c5         1 JZQ       0.238000
     32 C29         -3.8680    -3.5940     1.5780 c3         1 JZQ      -0.085600
     33 C30         -2.0580    -2.1470     2.5760 c3         1 JZQ      -0.085600
     34 S1          -1.3230    -3.9780     0.6380 ss         1 JZQ      -0.428000
     35 N4          -4.8430    -0.6640     0.3690 ns         1 JZQ      -0.476900
     36 O7          -7.1860    -1.6120     1.2820 oh         1 JZQ      -0.654000
     37 C31         -5.7200     0.4300     0.7970 c5         1 JZQ       0.174000
     38 C32         -5.9680     1.4690    -0.2680 ca         1 JZQ      -0.123300
     39 C33         -5.1500     2.5690    -0.5760 ca         1 JZQ      -0.061000
     40 C34         -5.5390     3.4390    -1.6130 ca         1 JZQ      -0.113000
     41 C35         -7.1760    -0.2230     0.9170 c5         1 JZQ       0.149300
     42 C36         -7.1380     1.2390    -0.9660 ca         1 JZQ      -0.082300
     43 C37         -7.5400     2.0940    -2.0040 ca         1 JZQ      -0.100000
     44 C38         -6.7330     3.2020    -2.3260 ca         1 JZQ      -0.100000
     45 C39         -7.8570     0.0060    -0.4890 c5         1 JZQ      -0.074100
     46 H21          4.9880     0.8210    -0.0900 h1         1 JZQ       0.050200
     47 H21A         4.8940     0.2720    -1.7820 h1         1 JZQ       0.050200
     48 H40         10.9470    -1.2620    -0.6720 ha         1 JZQ       0.124000
     49 H41          9.6420    -3.2640     0.0460 ha         1 JZQ       0.138500
     50 H47          9.7480     0.8350    -1.2870 ha         1 JZQ       0.138500
     51 HN2          2.8050     1.5170    -1.1420 hn         1 JZQ       0.319500
     52 H14          0.8950    -1.1590    -2.0280 h1         1 JZQ       0.085700
     53 H15          0.5200     2.5940    -1.3410 hc         1 JZQ       0.066700
     54 H15A        -0.7750     1.8620    -0.4180 hc         1 JZQ       0.066700
     55 H25          2.1430     4.2690     4.0880 ha         1 JZQ       0.111000
     56 H13          0.7400    -0.0170     0.2140 h1         1 JZQ       0.091700
     57 HO5         -0.5720     0.6830    -3.3890 ho         1 JZQ       0.475000
     58 H23          2.1550     3.9960    -0.2170 ha         1 JZQ       0.113000
     59 H27         -0.3860     1.3840     2.1150 ha         1 JZQ       0.113000
     60 H24          2.9890     5.0450     1.8750 ha         1 JZQ       0.110500
     61 H26          0.4540     2.4380     4.2030 ha         1 JZQ       0.110500
     62 H17         -3.3480    -2.2710    -0.7500 h1         1 JZQ       0.080700
     63 H19          0.3060    -2.1370     0.6730 h2         1 JZQ       0.088200
     64 H19A         0.1880    -2.9130    -0.9780 h2         1 JZQ       0.088200
     65 H29         -3.6700    -4.3800     2.3170 hc         1 JZQ       0.054033
     66 H29A        -4.6570    -2.9530     1.9860 hc         1 JZQ       0.054033
     67 H29B        -4.2650    -4.0830     0.6790 hc         1 JZQ       0.054033
     68 H30         -1.1670    -1.5320     2.4070 hc         1 JZQ       0.054033
     69 H30A        -2.8150    -1.5020     3.0390 hc         1 JZQ       0.054033
     70 H30B        -1.7930    -2.9150     3.3120 hc         1 JZQ       0.054033
     71 HN4         -5.1990    -1.5580     0.0580 hn         1 JZQ       0.327500
     72 HO7         -8.1270    -1.8700     1.3990 ho         1 JZQ       0.451000
     73 H31         -5.4090     0.8840     1.7490 h1         1 JZQ       0.089700
     74 H33         -4.2290     2.7460    -0.0250 ha         1 JZQ       0.134000
     75 H34         -4.9170     4.2950    -1.8640 ha         1 JZQ       0.115000
     76 H35         -7.7370     0.3540     1.6660 h1         1 JZQ       0.047700
     77 H37         -8.4600     1.9040    -2.5520 ha         1 JZQ       0.114000
     78 H38         -7.0300     3.8760    -3.1270 ha         1 JZQ       0.112000
     79 H39         -7.6850    -0.8370    -1.1690 hc         1 JZQ       0.059200
     80 H39A        -8.9400     0.1480    -0.4030 hc         1 JZQ       0.059200
@<TRIPOS>BOND
     1     1     9 1   
     2     2    11 1   
     3     3     6 1   
     4     3    10 1   
     5     4     5 2   
     6     5     6 1   
     7     5    14 1   
     8     6    46 1   
     9     6    47 1   
    10     7     8 ar  
    11     7    12 ar  
    12     7    48 1   
    13     8     9 ar  
    14     8    49 1   
    15     9    10 ar  
    16    10    11 ar  
    17    11    12 ar  
    18    12    50 1   
    19    13    15 2   
    20    13    16 1   
    21    13    27 1   
    22    14    20 1   
    23    14    51 1   
    24    16    20 1   
    25    16    21 1   
    26    16    52 1   
    27    17    18 1   
    28    17    22 ar  
    29    17    23 ar  
    30    18    20 1   
    31    18    53 1   
    32    18    54 1   
    33    19    24 ar  
    34    19    25 ar  
    35    19    55 1   
    36    20    56 1   
    37    21    57 1   
    38    22    24 ar  
    39    22    58 1   
    40    23    25 ar  
    41    23    59 1   
    42    24    60 1   
    43    25    61 1   
    44    26    28 2   
    45    26    29 1   
    46    26    35 1   
    47    27    29 1   
    48    27    31 1   
    49    29    30 1   
    50    29    62 1   
    51    30    32 1   
    52    30    33 1   
    53    30    34 1   
    54    31    34 1   
    55    31    63 1   
    56    31    64 1   
    57    32    65 1   
    58    32    66 1   
    59    32    67 1   
    60    33    68 1   
    61    33    69 1   
    62    33    70 1   
    63    35    37 1   
    64    35    71 1   
    65    36    41 1   
    66    36    72 1   
    67    37    38 1   
    68    37    41 1   
    69    37    73 1   
    70    38    39 ar  
    71    38    42 ar  
    72    39    40 ar  
    73    39    74 1   
    74    40    44 ar  
    75    40    75 1   
    76    41    45 1   
    77    41    76 1   
    78    42    43 ar  
    79    42    45 1   
    80    43    44 ar  
    81    43    77 1   
    82    44    78 1   
    83    45    79 1   
    84    45    80 1   
@<TRIPOS>SUBSTRUCTURE
     1 JZQ         1 TEMP              0 ****  ****    0 ROOT
