@<TRIPOS>MOLECULE
JZR
   42    42     1     0     0
SMALL
No Charge or Current Charge


@<TRIPOS>ATOM
      1 C1           0.8350     0.5080    -0.2930 c6         1 JZR       0.365300
      2 O1          -0.4960     0.8490     0.1280 os         1 JZR      -0.456000
      3 C2           1.8550     1.5690     0.2360 c6         1 JZR       0.115300
      4 O2           1.5400     2.9130    -0.2080 oh         1 JZR      -0.725000
      5 C3           3.2810     1.1560    -0.2250 c6         1 JZR       0.138300
      6 O3           4.2550     2.0920     0.2680 oh         1 JZR      -0.666000
      7 C4           3.6040    -0.2890     0.2640 c6         1 JZR       0.142300
      8 O4           4.9100    -0.6770    -0.2040 oh         1 JZR      -0.719000
      9 C5           2.4830    -1.2670    -0.2200 c6         1 JZR       0.181300
     10 O5           1.1840    -0.7890     0.2260 os         1 JZR      -0.467000
     11 C6           2.6890    -2.7230     0.3180 c3         1 JZR       0.171600
     12 O6           1.6430    -3.6350    -0.0790 oh         1 JZR      -0.712000
     13 C7          -1.5530     0.0260    -0.3900 c3         1 JZR       0.165600
     14 C8          -2.8840     0.5790     0.1530 c3         1 JZR      -0.080400
     15 C9          -4.1120    -0.2220    -0.3340 c3         1 JZR      -0.074400
     16 C10         -5.4480     0.3300     0.2100 c3         1 JZR      -0.074400
     17 C11         -6.6760    -0.4710    -0.2770 c3         1 JZR      -0.075400
     18 C12         -8.0090     0.0790     0.2650 c3         1 JZR      -0.088100
     19 H1           0.8700     0.4860    -1.3930 h2         1 JZR       0.032700
     20 H2           1.8250     1.5280     1.3360 h1         1 JZR       0.067700
     21 HO2          0.5700     3.0290    -0.0580 ho         1 JZR       0.525000
     22 H3           3.2920     1.1570    -1.3260 h1         1 JZR       0.052700
     23 HO3          3.8120     2.9710     0.2010 ho         1 JZR       0.466000
     24 H4           3.5940    -0.2850     1.3650 h1         1 JZR       0.056700
     25 HO4          5.4660     0.1350    -0.1040 ho         1 JZR       0.525000
     26 H5           2.4860    -1.3070    -1.3200 h1         1 JZR       0.058700
     27 H6           3.6590    -3.0890    -0.0450 h1         1 JZR       0.037200
     28 H6A          2.7500    -2.6740     1.4140 h1         1 JZR       0.037200
     29 HO6          1.8300    -4.4970     0.3620 ho         1 JZR       0.504000
     30 H7          -1.5630     0.0530    -1.4880 h1         1 JZR       0.035200
     31 H1'A        -1.4310    -1.0170    -0.0690 h1         1 JZR       0.035200
     32 H8          -2.8550     0.5660     1.2490 hc         1 JZR       0.050700
     33 H2'A        -2.9890     1.6260    -0.1560 hc         1 JZR       0.050700
     34 H9          -4.1370    -0.2100    -1.4310 hc         1 JZR       0.039700
     35 H3'A        -4.0030    -1.2700    -0.0270 hc         1 JZR       0.039700
     36 H10         -5.4230     0.3190     1.3070 hc         1 JZR       0.038700
     37 H4'A        -5.5570     1.3780    -0.0970 hc         1 JZR       0.038700
     38 H11         -6.7050    -0.4600    -1.3740 hc         1 JZR       0.037200
     39 H5'A        -6.5710    -1.5190     0.0300 hc         1 JZR       0.037200
     40 H12         -8.8490    -0.5200    -0.1070 hc         1 JZR       0.032033
     41 H6'A        -8.0240     0.0490     1.3610 hc         1 JZR       0.032033
     42 H6'B        -8.1600     1.1170    -0.0550 hc         1 JZR       0.032033
@<TRIPOS>BOND
     1     1     2 1   
     2     1     3 1   
     3     1    10 1   
     4     1    19 1   
     5     2    13 1   
     6     3     4 1   
     7     3     5 1   
     8     3    20 1   
     9     4    21 1   
    10     5     6 1   
    11     5     7 1   
    12     5    22 1   
    13     6    23 1   
    14     7     8 1   
    15     7     9 1   
    16     7    24 1   
    17     8    25 1   
    18     9    10 1   
    19     9    11 1   
    20     9    26 1   
    21    11    12 1   
    22    11    27 1   
    23    11    28 1   
    24    12    29 1   
    25    13    14 1   
    26    13    30 1   
    27    13    31 1   
    28    14    15 1   
    29    14    32 1   
    30    14    33 1   
    31    15    16 1   
    32    15    34 1   
    33    15    35 1   
    34    16    17 1   
    35    16    36 1   
    36    16    37 1   
    37    17    18 1   
    38    17    38 1   
    39    17    39 1   
    40    18    40 1   
    41    18    41 1   
    42    18    42 1   
@<TRIPOS>SUBSTRUCTURE
     1 JZR         1 TEMP              0 ****  ****    0 ROOT
