@<TRIPOS>MOLECULE
JZR
   42    42     1     0     0
SMALL
abcg2


@<TRIPOS>ATOM
      1 C1           0.7600     0.3850    -0.1590 c6         1 JZR       0.365300
      2 O1          -0.4780     0.6670     0.3720 os         1 JZR      -0.456000
      3 C2           1.7240     1.5050     0.2220 c6         1 JZR       0.115300
      4 O2           1.3530     2.7290    -0.3610 oh         1 JZR      -0.725000
      5 C3           3.1130     1.1510    -0.2880 c6         1 JZR       0.138300
      6 O3           4.0900     2.0640     0.1520 oh         1 JZR      -0.666000
      7 C4           3.5320    -0.2340     0.1930 c6         1 JZR       0.142300
      8 O4           4.7330    -0.6410    -0.4140 oh         1 JZR      -0.719000
      9 C5           2.4480    -1.2540    -0.1600 c6         1 JZR       0.181300
     10 O5           1.2120    -0.8330     0.3760 os         1 JZR      -0.467000
     11 C6           2.7600    -2.6250     0.4030 c3         1 JZR       0.171600
     12 O6           1.7790    -3.5320    -0.0400 oh         1 JZR      -0.712000
     13 C7          -1.5600    -0.0390    -0.2150 c3         1 JZR       0.165600
     14 C8          -2.8640     0.5010     0.3340 c3         1 JZR      -0.080400
     15 C9          -4.0650    -0.1970    -0.2940 c3         1 JZR      -0.074400
     16 C10         -5.3970     0.3160     0.2370 c3         1 JZR      -0.074400
     17 C11         -6.5970    -0.3700    -0.4030 c3         1 JZR      -0.075400
     18 C12         -7.9280     0.1460     0.1270 c3         1 JZR      -0.088100
     19 H1           0.7060     0.3070    -1.2630 h2         1 JZR       0.032700
     20 H2           1.7500     1.5750     1.3200 h1         1 JZR       0.067700
     21 HO2          0.5480     3.0390     0.0670 ho         1 JZR       0.525000
     22 H3           3.0750     1.1220    -1.3900 h1         1 JZR       0.052700
     23 HO3          3.9420     2.9070    -0.2860 ho         1 JZR       0.466000
     24 H4           3.6340    -0.2050     1.2900 h1         1 JZR       0.056700
     25 HO4          5.4110     0.0100    -0.2050 ho         1 JZR       0.525000
     26 H5           2.3810    -1.3260    -1.2590 h1         1 JZR       0.058700
     27 H6           3.7610    -2.9170     0.0700 h1         1 JZR       0.037200
     28 H6A          2.7900    -2.5590     1.5000 h1         1 JZR       0.037200
     29 HO6          2.0300    -4.4090     0.2620 ho         1 JZR       0.504000
     30 H7          -1.5320     0.0820    -1.3060 h1         1 JZR       0.035200
     31 H1'A        -1.4800    -1.1120    -0.0080 h1         1 JZR       0.035200
     32 H8          -2.8880     0.3700     1.4200 hc         1 JZR       0.050700
     33 H2'A        -2.9230     1.5770     0.1420 hc         1 JZR       0.050700
     34 H9          -4.0340    -0.0650    -1.3810 hc         1 JZR       0.039700
     35 H3'A        -3.9950    -1.2760    -0.1180 hc         1 JZR       0.039700
     36 H10         -5.4350     0.1760     1.3230 hc         1 JZR       0.038700
     37 H4'A        -5.4650     1.3960     0.0690 hc         1 JZR       0.038700
     38 H11         -6.5560    -0.2310    -1.4870 hc         1 JZR       0.037200
     39 H5'A        -6.5280    -1.4500    -0.2340 hc         1 JZR       0.037200
     40 H12         -8.7710    -0.3580    -0.3470 hc         1 JZR       0.032033
     41 H6'A        -8.0120    -0.0110     1.2040 hc         1 JZR       0.032033
     42 H6'B        -8.0360     1.2160    -0.0570 hc         1 JZR       0.032033
@<TRIPOS>BOND
     1     1     2 1   
     2     1     3 1   
     3     1    10 1   
     4     1    19 1   
     5     2    13 1   
     6     3     4 1   
     7     3     5 1   
     8     3    20 1   
     9     4    21 1   
    10     5     6 1   
    11     5     7 1   
    12     5    22 1   
    13     6    23 1   
    14     7     8 1   
    15     7     9 1   
    16     7    24 1   
    17     8    25 1   
    18     9    10 1   
    19     9    11 1   
    20     9    26 1   
    21    11    12 1   
    22    11    27 1   
    23    11    28 1   
    24    12    29 1   
    25    13    14 1   
    26    13    30 1   
    27    13    31 1   
    28    14    15 1   
    29    14    32 1   
    30    14    33 1   
    31    15    16 1   
    32    15    34 1   
    33    15    35 1   
    34    16    17 1   
    35    16    36 1   
    36    16    37 1   
    37    17    18 1   
    38    17    38 1   
    39    17    39 1   
    40    18    40 1   
    41    18    41 1   
    42    18    42 1   
@<TRIPOS>SUBSTRUCTURE
     1 JZR         1 TEMP              0 ****  ****    0 ROOT
