@<TRIPOS>MOLECULE
JZS
   57    59     1     0     0
SMALL
No Charge or Current Charge


@<TRIPOS>ATOM
      1 C1           8.5070     0.5900    -2.3710 c3         1 JZS      -0.107100
      2 F1          -7.6940    -1.5090    -0.3990 f          1 JZS      -0.095500
      3 N1           7.2630     0.2560    -0.2300 ns         1 JZS      -0.496900
      4 O1           5.7020     1.7140    -0.9920 o          1 JZS      -0.606100
      5 C2           8.4510     0.8840    -0.8520 c3         1 JZS       0.032700
      6 F2          -5.8640    -1.8970    -1.5110 f          1 JZS      -0.095500
      7 N2           1.2030     0.0470     0.8530 na         1 JZS       0.162800
      8 O2          -5.2310    -0.9460     1.0850 oh         1 JZS      -0.620000
      9 C3           5.9660     0.7090    -0.3460 c          1 JZS       0.617700
     10 F3          -7.0660    -0.1420    -1.9830 f          1 JZS      -0.095500
     11 N3           0.8350     1.3040     1.3330 nc         1 JZS      -0.509100
     12 C4           4.8980    -0.0950     0.3680 ca         1 JZS      -0.136600
     13 F4          -5.9340     1.7600     1.6610 f          1 JZS      -0.095500
     14 C5           5.1970    -1.2650     1.1100 ca         1 JZS      -0.090000
     15 F5          -7.6880     0.4800     1.5020 f          1 JZS      -0.095500
     16 N5          10.9110     0.9880    -0.5360 nt         1 JZS      -0.600000
     17 C6           4.1740    -1.9800     1.7570 ca         1 JZS      -0.107000
     18 F6          -7.2170     1.8910    -0.0960 f          1 JZS      -0.095500
     19 C7           2.8430    -1.5430     1.6750 ca         1 JZS      -0.109000
     20 C8           2.5260    -0.3860     0.9420 ca         1 JZS       0.021800
     21 C9           3.5510     0.3310     0.2950 ca         1 JZS      -0.050000
     22 C10         -0.4900     1.3450     1.1150 cd         1 JZS       0.369800
     23 C11         -0.9670     0.1240     0.5030 ca         1 JZS      -0.282900
     24 C12         -2.2320    -0.2830     0.0910 ca         1 JZS       0.372000
     25 C13         -4.5470     0.5980    -0.6100 c3         1 JZS       0.169800
     26 C14         -5.7900    -0.0710     0.0810 c3         1 JZS       0.039000
     27 C15         -6.6180    -0.9130    -0.9640 c3         1 JZS       0.307500
     28 C16         -6.6730     1.0270     0.7930 c3         1 JZS       0.307500
     29 C17         -2.3460    -1.5640    -0.4860 ca         1 JZS      -0.225000
     30 C18         -1.2090    -2.3940    -0.6470 ca         1 JZS       0.000700
     31 C19         -1.3530    -3.7690    -1.2790 c3         1 JZS      -0.053800
     32 C20          0.0580    -1.9360    -0.2240 ca         1 JZS      -0.168000
     33 C21          0.1300    -0.6630     0.3550 ca         1 JZS       0.016800
     34 C22          9.7490     0.4410    -0.1100 c          1 JZS       0.595100
     35 H1           9.3510     1.1070    -2.8430 hc         1 JZS       0.050033
     36 H1A          8.6190    -0.4860    -2.5530 hc         1 JZS       0.050033
     37 H1B          7.5910     0.9270    -2.8690 hc         1 JZS       0.050033
     38 HN1          7.4110    -0.5610     0.3500 hn         1 JZS       0.343500
     39 H2           8.3750     1.9710    -0.7150 h1         1 JZS       0.080700
     40 HO2         -4.2840    -0.6340     1.0880 ho         1 JZS       0.476000
     41 HN4         -3.1090     1.4320     0.7320 hn         1 JZS       0.480000
     42 H5           6.2140    -1.6370     1.1970 ha         1 JZS       0.120000
     43 HN5         10.9120     1.6540    -1.2950 hn         1 JZS       0.319000
     44 HN5A        11.7740     0.7250    -0.0840 hn         1 JZS       0.319000
     45 H6           4.4160    -2.8760     2.3250 ha         1 JZS       0.121000
     46 H7           2.0590    -2.1020     2.1810 ha         1 JZS       0.128000
     47 H9           3.2920     1.2260    -0.2680 ha         1 JZS       0.159000
     48 H10         -1.0390     2.2340     1.4010 h4         1 JZS       0.050800
     49 H13         -4.7860     1.6410    -0.8610 h1         1 JZS       0.070700
     50 H13A        -4.3280     0.1060    -1.5680 h1         1 JZS       0.070700
     51 H17         -3.3150    -1.9250    -0.8120 ha         1 JZS       0.113000
     52 H19         -1.2860    -3.7040    -2.3710 hc         1 JZS       0.046033
     53 H19A        -0.5680    -4.4520    -0.9350 hc         1 JZS       0.046033
     54 H19B        -2.3180    -4.2240    -1.0280 hc         1 JZS       0.046033
     55 H20          0.9480    -2.5500    -0.3430 ha         1 JZS       0.127000
     56 O3           9.7620    -0.3630     0.8100 o          1 JZS      -0.613100
     57 N4          -3.3370     0.5500     0.2660 nu         1 JZS      -0.934200
@<TRIPOS>BOND
     1     1     5 1   
     2     1    35 1   
     3     1    36 1   
     4     1    37 1   
     5     2    27 1   
     6     3     5 1   
     7     3     9 1   
     8     3    38 1   
     9     4     9 2   
    10     5    34 1   
    11     5    39 1   
    12     6    27 1   
    13     7    11 1   
    14     7    20 1   
    15     7    33 1   
    16     8    26 1   
    17     8    40 1   
    18     9    12 1   
    19    10    27 1   
    20    11    22 2   
    21    12    14 ar  
    22    12    21 ar  
    23    13    28 1   
    24    14    17 ar  
    25    14    42 1   
    26    15    28 1   
    27    16    34 1   
    28    16    43 1   
    29    16    44 1   
    30    17    19 ar  
    31    17    45 1   
    32    18    28 1   
    33    19    20 ar  
    34    19    46 1   
    35    20    21 ar  
    36    21    47 1   
    37    22    23 1   
    38    22    48 1   
    39    23    24 ar  
    40    23    33 ar  
    41    24    29 ar  
    42    24    57 1   
    43    25    26 1   
    44    25    49 1   
    45    25    50 1   
    46    25    57 1   
    47    26    27 1   
    48    26    28 1   
    49    29    30 ar  
    50    29    51 1   
    51    30    31 1   
    52    30    32 ar  
    53    31    52 1   
    54    31    53 1   
    55    31    54 1   
    56    32    33 ar  
    57    32    55 1   
    58    34    56 2   
    59    41    57 1   
@<TRIPOS>SUBSTRUCTURE
     1 JZS         1 TEMP              0 ****  ****    0 ROOT
