@<TRIPOS>MOLECULE
JZS
   57    59     1     0     0
SMALL
abcg2


@<TRIPOS>ATOM
      1 C1           8.7470     1.2060    -1.8520 c3         1 JZS      -0.107100
      2 F1          -7.9820     1.0370     0.7610 f          1 JZS      -0.095500
      3 N1           7.1780     0.4750    -0.0980 ns         1 JZS      -0.496900
      4 O1           5.5440     1.7020    -1.0480 o          1 JZS      -0.606100
      5 C2           8.2470     1.3880    -0.4170 c3         1 JZS       0.032700
      6 F2          -7.1850    -0.8600     1.3410 f          1 JZS      -0.095500
      7 N2           1.2760    -0.5890     0.3860 na         1 JZS       0.162800
      8 O2          -5.4170     1.3390     1.6840 oh         1 JZS      -0.620000
      9 C3           5.9060     0.6910    -0.4600 c          1 JZS       0.617700
     10 F3          -7.3890    -0.3790    -0.7500 f          1 JZS      -0.095500
     11 N3           0.9610     0.6210     0.8880 nc         1 JZS      -0.509100
     12 C4           4.9250    -0.3800    -0.0920 ca         1 JZS      -0.136600
     13 F4          -4.3290     2.4830    -0.4120 f          1 JZS      -0.095500
     14 C5           5.2980    -1.7020     0.1400 ca         1 JZS      -0.090000
     15 F5          -6.4480     2.6940    -0.5650 f          1 JZS      -0.095500
     16 N5          10.2890     2.1210     0.6370 nt         1 JZS      -0.600000
     17 C6           4.3360    -2.6450     0.4610 ca         1 JZS      -0.107000
     18 F6          -5.4230     1.2910    -1.8300 f          1 JZS      -0.095500
     19 C7           3.0010    -2.2870     0.5630 ca         1 JZS      -0.109000
     20 C8           2.6250    -0.9730     0.3030 ca         1 JZS       0.021800
     21 C9           3.5830    -0.0240    -0.0290 ca         1 JZS      -0.050000
     22 C10         -0.3390     0.7230     0.8420 cd         1 JZS       0.369800
     23 C11         -0.9210    -0.4470     0.2900 ca         1 JZS      -0.282900
     24 C12         -2.2430    -0.8600     0.0050 ca         1 JZS       0.372000
     25 C13         -4.6400    -0.4650     0.2310 c3         1 JZS       0.169800
     26 C14         -5.6250     0.6940     0.4690 c3         1 JZS       0.039000
     27 C15         -7.0700     0.1250     0.4430 c3         1 JZS       0.307500
     28 C16         -5.4550     1.8030    -0.6000 c3         1 JZS       0.307500
     29 C17         -2.3950    -2.1020    -0.5900 ca         1 JZS      -0.225000
     30 C18         -1.2880    -2.9160    -0.9170 ca         1 JZS       0.000700
     31 C19         -1.5460    -4.2370    -1.5810 c3         1 JZS      -0.053800
     32 C20          0.0040    -2.5230    -0.6310 ca         1 JZS      -0.168000
     33 C21          0.1630    -1.2790    -0.0070 ca         1 JZS       0.016800
     34 C22          9.3890     1.1370     0.5650 c          1 JZS       0.595100
     35 H1           9.5380     1.9160    -2.0880 hc         1 JZS       0.050033
     36 H1A          9.1310     0.1960    -2.0010 hc         1 JZS       0.050033
     37 H1B          7.9320     1.3710    -2.5550 hc         1 JZS       0.050033
     38 HN1          7.4300    -0.3320     0.4520 hn         1 JZS       0.343500
     39 H2           7.8900     2.4130    -0.2910 h1         1 JZS       0.080700
     40 HO2         -5.3150     0.6970     2.3980 ho         1 JZS       0.476000
     41 HN4         -3.0900     0.6300     1.0520 hn         1 JZS       0.480000
     42 H5           6.3300    -2.0190     0.0560 ha         1 JZS       0.120000
     43 HN5         10.1890     2.9780     0.1190 hn         1 JZS       0.319000
     44 HN5A        11.1140     2.0170     1.2040 hn         1 JZS       0.319000
     45 H6           4.6270    -3.6700     0.6490 ha         1 JZS       0.121000
     46 H7           2.2660    -3.0240     0.8560 ha         1 JZS       0.128000
     47 H9           3.2820     0.9930    -0.2360 ha         1 JZS       0.159000
     48 H10         -0.8220     1.6180     1.2020 h4         1 JZS       0.050800
     49 H13         -4.8310    -0.9130    -0.7440 h1         1 JZS       0.070700
     50 H13A        -4.8370    -1.2470     0.9760 h1         1 JZS       0.070700
     51 H17         -3.3820    -2.4810    -0.8220 ha         1 JZS       0.113000
     52 H19         -2.0660    -4.1040    -2.5310 hc         1 JZS       0.046033
     53 H19A        -0.6200    -4.7750    -1.7770 hc         1 JZS       0.046033
     54 H19B        -2.1780    -4.8720    -0.9580 hc         1 JZS       0.046033
     55 H20          0.8410    -3.1540    -0.8930 ha         1 JZS       0.127000
     56 O3           9.4700     0.0950     1.1990 o          1 JZS      -0.613100
     57 N4          -3.2790    -0.0050     0.2920 nu         1 JZS      -0.934200
@<TRIPOS>BOND
     1     1     5 1   
     2     1    35 1   
     3     1    36 1   
     4     1    37 1   
     5     2    27 1   
     6     3     5 1   
     7     3     9 1   
     8     3    38 1   
     9     4     9 2   
    10     5    34 1   
    11     5    39 1   
    12     6    27 1   
    13     7    11 1   
    14     7    20 1   
    15     7    33 1   
    16     8    26 1   
    17     8    40 1   
    18     9    12 1   
    19    10    27 1   
    20    11    22 2   
    21    12    14 ar  
    22    12    21 ar  
    23    13    28 1   
    24    14    17 ar  
    25    14    42 1   
    26    15    28 1   
    27    16    34 1   
    28    16    43 1   
    29    16    44 1   
    30    17    19 ar  
    31    17    45 1   
    32    18    28 1   
    33    19    20 ar  
    34    19    46 1   
    35    20    21 ar  
    36    21    47 1   
    37    22    23 1   
    38    22    48 1   
    39    23    24 ar  
    40    23    33 ar  
    41    24    29 ar  
    42    24    57 1   
    43    25    26 1   
    44    25    49 1   
    45    25    50 1   
    46    25    57 1   
    47    26    27 1   
    48    26    28 1   
    49    29    30 ar  
    50    29    51 1   
    51    30    31 1   
    52    30    32 ar  
    53    31    52 1   
    54    31    53 1   
    55    31    54 1   
    56    32    33 ar  
    57    32    55 1   
    58    34    56 2   
    59    41    57 1   
@<TRIPOS>SUBSTRUCTURE
     1 JZS         1 TEMP              0 ****  ****    0 ROOT
