@<TRIPOS>MOLECULE
JZT
  116   119     1     0     0
SMALL
abcg2


@<TRIPOS>ATOM
      1 C1           2.4710    -0.4070    -0.2830 c          1 JZT       0.647100
      2 O2           2.4910    -1.3690     0.4750 o          1 JZT      -0.651100
      3 N3           3.0790    -0.3910    -1.4930 ns         1 JZT      -0.512900
      4 N6           5.9350    -0.4240    -1.2850 n          1 JZT      -0.380400
      5 C7           3.8210    -1.5010    -2.0380 c3         1 JZT       0.115700
      6 C8           3.0690    -2.1830    -3.2100 c3         1 JZT      -0.056000
      7 C9           1.7250    -2.6950    -2.6880 c3         1 JZT      -0.086767
      8 C10          2.8200    -1.2120    -4.3660 c3         1 JZT      -0.086767
      9 C11          3.8780    -3.3790    -3.7200 c3         1 JZT      -0.086767
     10 C12          5.9350     0.9600    -1.1710 c          1 JZT       0.580500
     11 C13          6.6860     1.5720    -0.0210 c6         1 JZT      -0.156900
     12 C14          6.8260     0.6840     1.2090 c6         1 JZT      -0.037000
     13 C15          7.3740    -0.6510     0.7210 c6         1 JZT      -0.156900
     14 C16          6.5720    -1.2730    -0.3890 c          1 JZT       0.580500
     15 C17          5.2330    -1.0350    -2.4130 c3         1 JZT       0.073000
     16 C18          5.4790     0.4890     1.9060 c3         1 JZT      -0.089600
     17 C19          7.8130     1.3210     2.1820 c3         1 JZT      -0.089600
     18 N20          1.8640     0.7730     0.0610 ns         1 JZT      -0.484900
     19 C21          0.9270     0.7670     1.1510 c3         1 JZT       0.040700
     20 C22         -0.2880    -0.0940     0.7850 c          1 JZT       0.577100
     21 O23         -0.5300    -0.3730    -0.3800 o          1 JZT      -0.598100
     22 C24          0.5670     2.2030     1.5540 c3         1 JZT      -0.082400
     23 C25         -0.2500     3.0120     0.5520 c3         1 JZT      -0.081400
     24 C26         -0.2460     4.5050     0.8840 c3         1 JZT      -0.074400
     25 C27         -1.2770     5.2960     0.0780 c3         1 JZT      -0.075400
     26 C28         -2.6970     5.1600     0.6370 c3         1 JZT      -0.077400
     27 N29         -1.0790    -0.5380     1.7900 n          1 JZT      -0.423800
     28 C30         -0.8900    -0.2690     3.2180 c5         1 JZT       0.131000
     29 C31         -2.0830    -1.5680     1.5330 c5         1 JZT       0.050700
     30 C32         -2.3600    -2.1800     2.8880 cx         1 JZT      -0.116700
     31 C33         -1.6280    -1.3750     3.9230 cx         1 JZT      -0.152700
     32 C34         -1.2290    -2.7980     3.6600 cx         1 JZT      -0.067000
     33 C35         -1.6520    -3.7940     4.7170 c3         1 JZT      -0.067600
     34 C36          0.0920    -3.1550     3.0220 c3         1 JZT      -0.067600
     35 C37         -3.3830    -1.0870     0.8870 c          1 JZT       0.610100
     36 O38         -4.2650    -1.8910     0.6320 o          1 JZT      -0.605100
     37 N39         -3.4590     0.2230     0.6350 ns         1 JZT      -0.503900
     38 C40         -4.4650     0.9000    -0.1600 c3         1 JZT       0.094700
     39 C41         -4.3950     2.3700     0.2420 c3         1 JZT      -0.098400
     40 C42         -5.4340     3.3110    -0.3460 c3         1 JZT      -0.068400
     41 C43         -5.1750     4.7720     0.0370 c3         1 JZT      -0.071400
     42 C44         -3.8000     5.2860    -0.4170 c3         1 JZT      -0.077400
     43 O45         -2.8570     1.1270    -1.9730 oh         1 JZT      -0.650000
     44 C46         -4.1530     0.7160    -1.6660 c3         1 JZT       0.073300
     45 C49         -6.1420    -2.4220    -2.4730 c3         1 JZT       0.131200
     46 C50         -7.0390    -2.8730    -1.3620 c2         1 JZT      -0.241200
     47 C51         -8.2670    -3.3420    -1.5420 c2         1 JZT      -0.318000
     48 C54         -4.3860    -0.7250    -2.1240 c          1 JZT       0.577100
     49 H51         -8.8760    -3.6690    -0.7100 ha         1 JZT       0.160000
     50 H51A        -8.7080    -3.4240    -2.5290 ha         1 JZT       0.160000
     51 HN3          3.0160     0.4420    -2.0560 hn         1 JZT       0.318500
     52 H7           3.9130    -2.2410    -1.2410 h1         1 JZT       0.095700
     53 H9           1.1010    -1.8910    -2.2970 hc         1 JZT       0.038033
     54 H9A          1.1700    -3.1840    -3.4910 hc         1 JZT       0.038033
     55 H9B          1.8670    -3.4230    -1.8870 hc         1 JZT       0.038033
     56 H10          3.7470    -0.8470    -4.8130 hc         1 JZT       0.038033
     57 H10A         2.2540    -1.7090    -5.1560 hc         1 JZT       0.038033
     58 H10B         2.2360    -0.3440    -4.0530 hc         1 JZT       0.038033
     59 H11          4.1440    -4.0570    -2.9060 hc         1 JZT       0.038033
     60 H11A         3.2930    -3.9480    -4.4450 hc         1 JZT       0.038033
     61 H11B         4.8000    -3.0770    -4.2200 hc         1 JZT       0.038033
     62 H13          7.6820     1.8240    -0.4060 hc         1 JZT       0.077700
     63 H13A         6.2020     2.5190     0.2210 hc         1 JZT       0.077700
     64 H15          8.3920    -0.5140     0.3370 hc         1 JZT       0.077700
     65 H15A         7.4400    -1.3810     1.5290 hc         1 JZT       0.077700
     66 H17          5.2020    -0.3040    -3.2180 h1         1 JZT       0.073700
     67 H17A         5.8270    -1.8750    -2.7620 h1         1 JZT       0.073700
     68 H18          4.7450    -0.0210     1.2820 hc         1 JZT       0.043200
     69 H18A         5.6030    -0.1110     2.8100 hc         1 JZT       0.043200
     70 H18B         5.0510     1.4480     2.2010 hc         1 JZT       0.043200
     71 H19          7.4520     2.2950     2.5200 hc         1 JZT       0.043200
     72 H19A         7.9520     0.6940     3.0640 hc         1 JZT       0.043200
     73 H19B         8.7890     1.4690     1.7160 hc         1 JZT       0.043200
     74 HN20         1.6650     1.4190    -0.6870 hn         1 JZT       0.306500
     75 H21          1.4280     0.3120     2.0080 h1         1 JZT       0.090700
     76 H24          0.0350     2.1830     2.5070 hc         1 JZT       0.052700
     77 H24A         1.5130     2.7140     1.7540 hc         1 JZT       0.052700
     78 H25          0.1250     2.8910    -0.4690 hc         1 JZT       0.045700
     79 H25A        -1.2810     2.6420     0.5310 hc         1 JZT       0.045700
     80 H26         -0.4330     4.6480     1.9540 hc         1 JZT       0.038200
     81 H26A         0.7590     4.8940     0.6990 hc         1 JZT       0.038200
     82 H27         -0.9940     6.3510     0.0410 hc         1 JZT       0.043700
     83 H27A        -1.2510     4.9460    -0.9600 hc         1 JZT       0.043700
     84 H28         -2.7860     4.1990     1.1490 hc         1 JZT       0.035200
     85 H28A        -2.8560     5.9080     1.4190 hc         1 JZT       0.035200
     86 H30          0.1700    -0.2440     3.4790 h1         1 JZT       0.050700
     87 H30A        -1.3210     0.6970     3.4930 h1         1 JZT       0.050700
     88 H31         -1.6690    -2.3010     0.8310 h1         1 JZT       0.115700
     89 H32         -3.3640    -2.5460     3.0650 hc         1 JZT       0.113700
     90 H33         -2.0910    -1.1240     4.8700 hc         1 JZT       0.096700
     91 H35         -1.7620    -4.7910     4.2870 hc         1 JZT       0.044200
     92 H35A        -0.9090    -3.8550     5.5140 hc         1 JZT       0.044200
     93 H35B        -2.6060    -3.5210     5.1720 hc         1 JZT       0.044200
     94 H36          0.4040    -2.4980     2.2120 hc         1 JZT       0.044200
     95 H36A         0.8850    -3.1400     3.7720 hc         1 JZT       0.044200
     96 H36B         0.0480    -4.1680     2.6150 hc         1 JZT       0.044200
     97 HN39        -2.6890     0.7900     0.9490 hn         1 JZT       0.318500
     98 H40         -5.4520     0.4870     0.0680 h1         1 JZT       0.073700
     99 H41         -4.4530     2.4240     1.3340 hc         1 JZT       0.053200
    100 H41A        -3.4000     2.7250    -0.0350 hc         1 JZT       0.053200
    101 H42         -5.4390     3.2430    -1.4390 hc         1 JZT       0.039700
    102 H42A        -6.4330     3.0120    -0.0150 hc         1 JZT       0.039700
    103 H43         -5.9640     5.3820    -0.4060 hc         1 JZT       0.040200
    104 H43A        -5.2740     4.8920     1.1210 hc         1 JZT       0.040200
    105 H44         -3.8750     6.3320    -0.7250 hc         1 JZT       0.043200
    106 H44A        -3.5010     4.7380    -1.3190 hc         1 JZT       0.043200
    107 HO45        -2.2350     0.4730    -1.6250 ho         1 JZT       0.483000
    108 H46         -4.8360     1.3610    -2.2270 h1         1 JZT       0.077700
    109 HN48        -6.3810    -0.3760    -2.0500 hn         1 JZT       0.305500
    110 H49         -6.6580    -2.4930    -3.4340 h1         1 JZT       0.062700
    111 H49A        -5.2630    -3.0650    -2.5300 h1         1 JZT       0.062700
    112 H50         -6.6220    -2.7960    -0.3630 ha         1 JZT       0.195000
    113 O47         -3.4460    -1.4660    -2.3600 o          1 JZT      -0.584100
    114 O4           5.3830     1.6510    -2.0000 o          1 JZT      -0.526500
    115 O5           6.5090    -2.4730    -0.5390 o          1 JZT      -0.526500
    116 N48         -5.6770    -1.0710    -2.2470 ns         1 JZT      -0.496900
@<TRIPOS>BOND
     1     1     2 2   
     2     1     3 1   
     3     1    18 1   
     4     3     5 1   
     5     3    51 1   
     6     4    10 1   
     7     4    14 1   
     8     4    15 1   
     9     5     6 1   
    10     5    15 1   
    11     5    52 1   
    12     6     7 1   
    13     6     8 1   
    14     6     9 1   
    15     7    53 1   
    16     7    54 1   
    17     7    55 1   
    18     8    56 1   
    19     8    57 1   
    20     8    58 1   
    21     9    59 1   
    22     9    60 1   
    23     9    61 1   
    24    10    11 1   
    25    10   114 2   
    26    11    12 1   
    27    11    62 1   
    28    11    63 1   
    29    12    13 1   
    30    12    16 1   
    31    12    17 1   
    32    13    14 1   
    33    13    64 1   
    34    13    65 1   
    35    14   115 2   
    36    15    66 1   
    37    15    67 1   
    38    16    68 1   
    39    16    69 1   
    40    16    70 1   
    41    17    71 1   
    42    17    72 1   
    43    17    73 1   
    44    18    19 1   
    45    18    74 1   
    46    19    20 1   
    47    19    22 1   
    48    19    75 1   
    49    20    21 2   
    50    20    27 1   
    51    22    23 1   
    52    22    76 1   
    53    22    77 1   
    54    23    24 1   
    55    23    78 1   
    56    23    79 1   
    57    24    25 1   
    58    24    80 1   
    59    24    81 1   
    60    25    26 1   
    61    25    82 1   
    62    25    83 1   
    63    26    42 1   
    64    26    84 1   
    65    26    85 1   
    66    27    28 1   
    67    27    29 1   
    68    28    31 1   
    69    28    86 1   
    70    28    87 1   
    71    29    30 1   
    72    29    35 1   
    73    29    88 1   
    74    30    31 1   
    75    30    32 1   
    76    30    89 1   
    77    31    32 1   
    78    31    90 1   
    79    32    33 1   
    80    32    34 1   
    81    33    91 1   
    82    33    92 1   
    83    33    93 1   
    84    34    94 1   
    85    34    95 1   
    86    34    96 1   
    87    35    36 2   
    88    35    37 1   
    89    37    38 1   
    90    37    97 1   
    91    38    39 1   
    92    38    44 1   
    93    38    98 1   
    94    39    40 1   
    95    39    99 1   
    96    39   100 1   
    97    40    41 1   
    98    40   101 1   
    99    40   102 1   
   100    41    42 1   
   101    41   103 1   
   102    41   104 1   
   103    42   105 1   
   104    42   106 1   
   105    43    44 1   
   106    43   107 1   
   107    44    48 1   
   108    44   108 1   
   109    45    46 1   
   110    45   110 1   
   111    45   111 1   
   112    45   116 1   
   113    46    47 2   
   114    46   112 1   
   115    47    49 1   
   116    47    50 1   
   117    48   113 2   
   118    48   116 1   
   119   109   116 1   
@<TRIPOS>SUBSTRUCTURE
     1 JZT         1 TEMP              0 ****  ****    0 ROOT
