@<TRIPOS>MOLECULE
JZT
  116   119     1     0     0
SMALL
No Charge or Current Charge


@<TRIPOS>ATOM
      1 C1           2.7700    -1.3350    -0.4130 c          1 JZT       0.647100
      2 O2           3.5640    -1.6350     0.4620 o          1 JZT      -0.651100
      3 N3           3.0760    -1.2820    -1.7420 ns         1 JZT      -0.512900
      4 N6           5.0880     0.9430    -2.1450 n          1 JZT      -0.380400
      5 C7           4.4080    -1.5120    -2.3200 c3         1 JZT       0.115700
      6 C8           4.4430    -2.8290    -3.1820 c3         1 JZT      -0.056000
      7 C9           3.9570    -4.0330    -2.3240 c3         1 JZT      -0.086767
      8 C10          3.5280    -2.7130    -4.4340 c3         1 JZT      -0.086767
      9 C11          5.8950    -3.1390    -3.6460 c3         1 JZT      -0.086767
     10 C12          4.0160     1.8320    -1.9270 c          1 JZT       0.580500
     11 C13          4.2240     3.0150    -0.9700 c6         1 JZT      -0.156900
     12 C14          5.3760     2.8380     0.0520 c6         1 JZT      -0.037000
     13 C15          6.6230     2.3540    -0.7230 c6         1 JZT      -0.156900
     14 C16          6.3650     1.1100    -1.5790 c          1 JZT       0.580500
     15 C17          4.8780    -0.2230    -3.0560 c3         1 JZT       0.073000
     16 C18          4.9960     1.8060     1.1560 c3         1 JZT      -0.089600
     17 C19          5.6740     4.1910     0.7630 c3         1 JZT      -0.089600
     18 N20          1.4620    -1.0160    -0.1770 ns         1 JZT      -0.484900
     19 C21          0.8290    -0.9360     1.1560 c3         1 JZT       0.040700
     20 C22         -0.6970    -1.2800     1.0260 c          1 JZT       0.577100
     21 O23         -1.2360    -1.3240    -0.0770 o          1 JZT      -0.598100
     22 C24          1.1520     0.4380     1.8220 c3         1 JZT      -0.082400
     23 C25          0.5170     1.6650     1.1240 c3         1 JZT      -0.081400
     24 C26          0.9780     3.0250     1.7120 c3         1 JZT      -0.074400
     25 C27          0.3420     4.2550     1.0130 c3         1 JZT      -0.075400
     26 C28         -1.1220     4.5320     1.4410 c3         1 JZT      -0.077400
     27 N29         -1.4840    -1.5150     2.1840 n          1 JZT      -0.423800
     28 C30         -0.9000    -1.6020     3.5470 c5         1 JZT       0.131000
     29 C31         -2.8700    -2.1180     2.0840 c5         1 JZT       0.050700
     30 C32         -3.1470    -2.6350     3.5080 cx         1 JZT      -0.116700
     31 C33         -1.9630    -2.3250     4.3820 cx         1 JZT      -0.152700
     32 C34         -2.2730    -3.7720     4.0220 cx         1 JZT      -0.067000
     33 C35         -2.8470    -4.6690     5.1180 c3         1 JZT      -0.067600
     34 C36         -1.3690    -4.6110     3.1020 c3         1 JZT      -0.067600
     35 C37         -4.0250    -1.1910     1.5660 c          1 JZT       0.610100
     36 O38         -5.2210    -1.4520     1.5260 o          1 JZT      -0.605100
     37 N39         -3.5070     0.0050     1.1340 ns         1 JZT      -0.503900
     38 C40         -4.1980     1.0110     0.3280 c3         1 JZT       0.094700
     39 C41         -3.5700     2.3740     0.6900 c3         1 JZT      -0.098400
     40 C42         -4.2010     3.6410     0.0700 c3         1 JZT      -0.068400
     41 C43         -3.5510     4.9690     0.5550 c3         1 JZT      -0.071400
     42 C44         -2.0210     5.0910     0.3010 c3         1 JZT      -0.077400
     43 O45         -2.7150     0.5080    -1.5940 oh         1 JZT      -0.650000
     44 C46         -4.1070     0.6620    -1.1940 c3         1 JZT       0.073300
     45 C49         -7.2420    -1.3720    -2.2320 c3         1 JZT       0.131200
     46 C50         -8.5950    -0.7310    -2.4380 c2         1 JZT      -0.241200
     47 C51         -8.9050     0.1360    -3.4170 c2         1 JZT      -0.318000
     48 C54         -4.9570    -0.5990    -1.5480 c          1 JZT       0.577100
     49 H51         -9.9060     0.5610    -3.5080 ha         1 JZT       0.160000
     50 H51A        -8.1700     0.4490    -4.1610 ha         1 JZT       0.160000
     51 HN3          2.3370    -0.9880    -2.3660 hn         1 JZT       0.318500
     52 H7           5.1130    -1.6650    -1.4910 h1         1 JZT       0.095700
     53 H9           2.9050    -3.9250    -2.0350 hc         1 JZT       0.038033
     54 H9A          4.0460    -4.9750    -2.8810 hc         1 JZT       0.038033
     55 H9B          4.5530    -4.1270    -1.4080 hc         1 JZT       0.038033
     56 H10          3.8650    -1.9130    -5.1050 hc         1 JZT       0.038033
     57 H10A         3.5350    -3.6480    -5.0080 hc         1 JZT       0.038033
     58 H10B         2.4890    -2.5050    -4.1510 hc         1 JZT       0.038033
     59 H11          6.5850    -3.1550    -2.7930 hc         1 JZT       0.038033
     60 H11A         5.9480    -4.1190    -4.1370 hc         1 JZT       0.038033
     61 H11B         6.2600    -2.4000    -4.3680 hc         1 JZT       0.038033
     62 H13          4.4810     3.8600    -1.6230 hc         1 JZT       0.077700
     63 H13A         3.2670     3.2830    -0.5050 hc         1 JZT       0.077700
     64 H15          6.8870     3.1460    -1.4360 hc         1 JZT       0.077700
     65 H15A         7.5000     2.1930    -0.0820 hc         1 JZT       0.077700
     66 H17          4.1470     0.0390    -3.8300 h1         1 JZT       0.073700
     67 H17A         5.8160    -0.4210    -3.5880 h1         1 JZT       0.073700
     68 H18          4.7100     0.8380     0.7300 hc         1 JZT       0.043200
     69 H18A         5.8360     1.6260     1.8390 hc         1 JZT       0.043200
     70 H18B         4.1560     2.1570     1.7640 hc         1 JZT       0.043200
     71 H19          4.7950     4.5600     1.3050 hc         1 JZT       0.043200
     72 H19A         6.4920     4.0910     1.4880 hc         1 JZT       0.043200
     73 H19B         5.9670     4.9670     0.0450 hc         1 JZT       0.043200
     74 HN20         0.8800    -0.8250    -0.9830 hn         1 JZT       0.306500
     75 H21          1.2690    -1.7260     1.7760 h1         1 JZT       0.090700
     76 H24          0.8460     0.4310     2.8720 hc         1 JZT       0.052700
     77 H24A         2.2410     0.5640     1.8350 hc         1 JZT       0.052700
     78 H25          0.7610     1.6430     0.0550 hc         1 JZT       0.045700
     79 H25A        -0.5710     1.5830     1.2050 hc         1 JZT       0.045700
     80 H26          0.7620     3.0610     2.7870 hc         1 JZT       0.038200
     81 H26A         2.0660     3.1000     1.6120 hc         1 JZT       0.038200
     82 H27          0.9440     5.1450     1.2330 hc         1 JZT       0.043700
     83 H27A         0.4040     4.1070    -0.0720 hc         1 JZT       0.043700
     84 H28         -1.5520     3.6220     1.8620 hc         1 JZT       0.035200
     85 H28A        -1.1190     5.2480     2.2720 hc         1 JZT       0.035200
     86 H30          0.0580    -2.1380     3.5550 h1         1 JZT       0.050700
     87 H30A        -0.7220    -0.5960     3.9480 h1         1 JZT       0.050700
     88 H31         -2.8550    -2.9480     1.3660 h1         1 JZT       0.115700
     89 H32         -4.1470    -2.5390     3.9280 hc         1 JZT       0.113700
     90 H33         -2.1360    -2.0090     5.4080 hc         1 JZT       0.096700
     91 H35         -3.4420    -5.4840     4.6880 hc         1 JZT       0.044200
     92 H35A        -2.0480    -5.1160     5.7210 hc         1 JZT       0.044200
     93 H35B        -3.5000    -4.1100     5.7990 hc         1 JZT       0.044200
     94 H36         -0.9040    -4.0430     2.2910 hc         1 JZT       0.044200
     95 H36A        -0.5540    -5.0680     3.6760 hc         1 JZT       0.044200
     96 H36B        -1.9400    -5.4220     2.6360 hc         1 JZT       0.044200
     97 HN39        -2.5100     0.1080     1.2640 hn         1 JZT       0.318500
     98 H40         -5.2570     1.0320     0.6230 h1         1 JZT       0.073700
     99 H41         -3.5870     2.4820     1.7820 hc         1 JZT       0.053200
    100 H41A        -2.5220     2.3340     0.3790 hc         1 JZT       0.053200
    101 H42         -4.1200     3.5930    -1.0230 hc         1 JZT       0.039700
    102 H42A        -5.2710     3.6630     0.3080 hc         1 JZT       0.039700
    103 H43         -4.0520     5.7940     0.0340 hc         1 JZT       0.040200
    104 H43A        -3.7580     5.1140     1.6230 hc         1 JZT       0.040200
    105 H44         -1.7680     6.1490     0.1570 hc         1 JZT       0.043200
    106 H44A        -1.7850     4.5900    -0.6460 hc         1 JZT       0.043200
    107 HO45        -2.3450    -0.2650    -1.0910 ho         1 JZT       0.483000
    108 H46         -4.5560     1.4890    -1.7590 h1         1 JZT       0.077700
    109 HN48        -6.5970     0.6130    -1.8100 hn         1 JZT       0.305500
    110 H49         -6.9080    -1.8630    -3.1570 h1         1 JZT       0.062700
    111 H49A        -7.2930    -2.1270    -1.4360 h1         1 JZT       0.062700
    112 H50         -9.3470    -1.0340    -1.7040 ha         1 JZT       0.195000
    113 O47         -4.4860    -1.7290    -1.6160 o          1 JZT      -0.584100
    114 O4           2.9210     1.6690    -2.4490 o          1 JZT      -0.526500
    115 O5           7.2510     0.2780    -1.7240 o          1 JZT      -0.526500
    116 N48         -6.2770    -0.3470    -1.8580 ns         1 JZT      -0.496900
@<TRIPOS>BOND
     1     1     2 2   
     2     1     3 1   
     3     1    18 1   
     4     3     5 1   
     5     3    51 1   
     6     4    10 1   
     7     4    14 1   
     8     4    15 1   
     9     5     6 1   
    10     5    15 1   
    11     5    52 1   
    12     6     7 1   
    13     6     8 1   
    14     6     9 1   
    15     7    53 1   
    16     7    54 1   
    17     7    55 1   
    18     8    56 1   
    19     8    57 1   
    20     8    58 1   
    21     9    59 1   
    22     9    60 1   
    23     9    61 1   
    24    10    11 1   
    25    10   114 2   
    26    11    12 1   
    27    11    62 1   
    28    11    63 1   
    29    12    13 1   
    30    12    16 1   
    31    12    17 1   
    32    13    14 1   
    33    13    64 1   
    34    13    65 1   
    35    14   115 2   
    36    15    66 1   
    37    15    67 1   
    38    16    68 1   
    39    16    69 1   
    40    16    70 1   
    41    17    71 1   
    42    17    72 1   
    43    17    73 1   
    44    18    19 1   
    45    18    74 1   
    46    19    20 1   
    47    19    22 1   
    48    19    75 1   
    49    20    21 2   
    50    20    27 1   
    51    22    23 1   
    52    22    76 1   
    53    22    77 1   
    54    23    24 1   
    55    23    78 1   
    56    23    79 1   
    57    24    25 1   
    58    24    80 1   
    59    24    81 1   
    60    25    26 1   
    61    25    82 1   
    62    25    83 1   
    63    26    42 1   
    64    26    84 1   
    65    26    85 1   
    66    27    28 1   
    67    27    29 1   
    68    28    31 1   
    69    28    86 1   
    70    28    87 1   
    71    29    30 1   
    72    29    35 1   
    73    29    88 1   
    74    30    31 1   
    75    30    32 1   
    76    30    89 1   
    77    31    32 1   
    78    31    90 1   
    79    32    33 1   
    80    32    34 1   
    81    33    91 1   
    82    33    92 1   
    83    33    93 1   
    84    34    94 1   
    85    34    95 1   
    86    34    96 1   
    87    35    36 2   
    88    35    37 1   
    89    37    38 1   
    90    37    97 1   
    91    38    39 1   
    92    38    44 1   
    93    38    98 1   
    94    39    40 1   
    95    39    99 1   
    96    39   100 1   
    97    40    41 1   
    98    40   101 1   
    99    40   102 1   
   100    41    42 1   
   101    41   103 1   
   102    41   104 1   
   103    42   105 1   
   104    42   106 1   
   105    43    44 1   
   106    43   107 1   
   107    44    48 1   
   108    44   108 1   
   109    45    46 1   
   110    45   110 1   
   111    45   111 1   
   112    45   116 1   
   113    46    47 2   
   114    46   112 1   
   115    47    49 1   
   116    47    50 1   
   117    48   113 2   
   118    48   116 1   
   119   109   116 1   
@<TRIPOS>SUBSTRUCTURE
     1 JZT         1 TEMP              0 ****  ****    0 ROOT
