@<TRIPOS>MOLECULE
JZU
   38    40     1     0     0
SMALL
bcc


@<TRIPOS>ATOM
      1 S           -4.2240    -1.3220     0.3600 s6         1 JZU       1.395800
      2 N1           5.3180    -0.8740     0.8800 nb         1 JZU      -0.828000
      3 C2           4.8100     0.2700     1.3290 ca         1 JZU       0.713900
      4 N3           3.6140     0.7840     1.0990 nb         1 JZU      -0.743000
      5 C4           2.8840    -0.0020     0.3120 ca         1 JZU       0.476800
      6 C5           3.2720    -1.2170    -0.2270 ca         1 JZU      -0.236200
      7 C6           4.5720    -1.6540     0.0890 ca         1 JZU       0.783200
      8 N6           5.0800    -2.8000    -0.3640 nv         1 JZU      -0.954500
      9 N7           2.2650    -1.7570    -0.9860 nc         1 JZU      -0.549100
     10 C8           1.3020    -0.8910    -0.9090 cd         1 JZU       0.398700
     11 N9           1.6110     0.2010    -0.1410 na         1 JZU      -0.260000
     12 C1           0.7600     1.3170     0.1770 c5         1 JZU       0.262800
     13 N18         -4.1490    -1.8750    -1.1950 n8         1 JZU      -0.937700
     14 C7           0.2400     2.0700    -1.0460 c5         1 JZU       0.059100
     15 O2           1.1920     2.9970    -1.4700 oh         1 JZU      -0.568800
     16 O2S         -5.3110    -0.3620     0.3720 o          1 JZU      -0.617300
     17 C3          -1.0550     2.6730    -0.4960 c5         1 JZU       0.089100
     18 O3          -0.7890     3.7930     0.3040 oh         1 JZU      -0.576800
     19 O3S         -4.2140    -2.3930     1.3410 o          1 JZU      -0.617300
     20 C9          -1.5500     1.5460     0.4010 c5         1 JZU       0.139100
     21 O4          -0.3790     0.8610     0.8580 os         1 JZU      -0.403600
     22 C10         -2.4670     0.5750    -0.3230 c3         1 JZU       0.200800
     23 N5          -2.8170    -0.5140     0.5730 n7         1 JZU      -0.825100
     24 HN6          6.0160    -3.0710    -0.1180 hn         1 JZU       0.452800
     25 HN6A         4.5460    -3.4080    -0.9590 hn         1 JZU       0.452800
     26 H8           0.3410    -0.9970    -1.3910 h5         1 JZU       0.056800
     27 H1           1.3580     1.9850     0.8050 h2         1 JZU       0.127700
     28 HN18        -3.5100    -2.6550    -1.3070 hn         1 JZU       0.419300
     29 HN1A        -5.0660    -2.1150    -1.5590 hn         1 JZU       0.419300
     30 H2          -0.0090     1.3580    -1.8440 h1         1 JZU       0.048700
     31 HO2          1.0010     3.2480    -2.3800 ho         1 JZU       0.417000
     32 H3          -1.7730     2.9010    -1.2950 h1         1 JZU       0.057700
     33 HO3         -0.1850     4.3700    -0.1790 ho         1 JZU       0.425000
     34 H4          -2.0810     1.9420     1.2710 h1         1 JZU       0.114700
     35 H5          -3.3750     1.1100    -0.6010 h1         1 JZU       0.055200
     36 H5'A        -2.0120     0.2090    -1.2500 h1         1 JZU       0.055200
     37 HN5         -2.0500    -1.1220     0.8390 hn         1 JZU       0.444800
     38 H6           5.4650     0.8530     1.9680 h5         1 JZU       0.049100
@<TRIPOS>BOND
     1     1    13 1   
     2     1    16 2   
     3     1    19 2   
     4     1    23 1   
     5     2     3 ar  
     6     2     7 ar  
     7     3     4 ar  
     8     3    38 1   
     9     4     5 ar  
    10     5     6 ar  
    11     5    11 1   
    12     6     7 ar  
    13     6     9 1   
    14     7     8 1   
    15     8    24 1   
    16     8    25 1   
    17     9    10 2   
    18    10    11 1   
    19    10    26 1   
    20    11    12 1   
    21    12    14 1   
    22    12    21 1   
    23    12    27 1   
    24    13    28 1   
    25    13    29 1   
    26    14    15 1   
    27    14    17 1   
    28    14    30 1   
    29    15    31 1   
    30    17    18 1   
    31    17    20 1   
    32    17    32 1   
    33    18    33 1   
    34    20    21 1   
    35    20    22 1   
    36    20    34 1   
    37    22    23 1   
    38    22    35 1   
    39    22    36 1   
    40    23    37 1   
@<TRIPOS>SUBSTRUCTURE
     1 JZU         1 TEMP              0 ****  ****    0 ROOT
