@<TRIPOS>MOLECULE
JZU
   38    40     1     0     0
SMALL
No Charge or Current Charge


@<TRIPOS>ATOM
      1 S           -3.7490    -1.8440    -0.4480 s6         1 JZU       1.254200
      2 N1           5.5050    -0.6770     0.7070 nb         1 JZU      -0.302000
      3 C2           5.0210     0.5580     0.9760 ca         1 JZU       0.187900
      4 N3           3.7370     0.9690     0.8510 nb         1 JZU      -0.217000
      5 C4           2.8620     0.0420     0.4120 ca         1 JZU       0.148500
      6 C5           3.2490    -1.2390     0.1090 ca         1 JZU      -0.105600
      7 C6           4.6090    -1.5770     0.2740 ca         1 JZU       0.454900
      8 N6           5.0920    -2.8170    -0.0010 nv         1 JZU      -1.064900
      9 N7           2.1900    -2.0240    -0.3350 nc         1 JZU      -0.549100
     10 C8           1.1610    -1.1580    -0.2790 cd         1 JZU       0.398700
     11 N9           1.5160     0.1250     0.1720 na         1 JZU      -0.289300
     12 C1           0.6370     1.2790     0.3230 c5         1 JZU       0.315300
     13 N18         -5.0690    -1.1800    -1.0640 n8         1 JZU      -1.048100
     14 C7           0.2530     2.0150    -1.0050 c5         1 JZU       0.082300
     15 O2           1.2280     2.9760    -1.4580 oh         1 JZU      -0.691000
     16 O2S         -4.2070    -2.7250     0.6140 o          1 JZU      -0.546500
     17 C3          -1.0580     2.7120    -0.5560 c5         1 JZU       0.112300
     18 O3          -0.7560     3.8730     0.2290 oh         1 JZU      -0.699000
     19 O3S         -2.8690    -2.2780    -1.5240 o          1 JZU      -0.546500
     20 C9          -1.7180     1.5590     0.2710 c5         1 JZU       0.162300
     21 O4          -0.6150     0.8580     0.9170 os         1 JZU      -0.450000
     22 C10         -2.5250     0.5410    -0.5820 c3         1 JZU       0.200800
     23 N5          -3.1090    -0.5250     0.2650 n7         1 JZU      -0.880300
     24 HN6          6.0930    -2.9150    -0.1520 hn         1 JZU       0.508000
     25 HN6A         4.4880    -3.4400    -0.5320 hn         1 JZU       0.508000
     26 H8           0.1380    -1.3870    -0.5540 h5         1 JZU       0.056800
     27 H1           1.1410     1.9780     1.0030 h2         1 JZU       0.127700
     28 HN18        -5.7750    -1.7860    -0.6570 hn         1 JZU       0.474500
     29 HN1A        -5.0900    -0.3490    -0.4800 hn         1 JZU       0.474500
     30 H2           0.0460     1.2850    -1.8010 h1         1 JZU       0.048700
     31 HO2          1.9790     2.4750    -1.8580 ho         1 JZU       0.516000
     32 H3          -1.6780     2.9900    -1.4210 h1         1 JZU       0.057700
     33 HO3          0.0740     4.2250    -0.1800 ho         1 JZU       0.524000
     34 H4          -2.3910     1.9640     1.0390 h1         1 JZU       0.114700
     35 H5          -3.3140     1.0830    -1.1200 h1         1 JZU       0.055200
     36 H5'A        -1.8510     0.1140    -1.3370 h1         1 JZU       0.055200
     37 HN5         -2.3520    -0.9630     0.7900 hn         1 JZU       0.500000
     38 H6           5.7380     1.2980     1.3290 h5         1 JZU       0.049100
@<TRIPOS>BOND
     1     1    13 1   
     2     1    16 2   
     3     1    19 2   
     4     1    23 1   
     5     2     3 ar  
     6     2     7 ar  
     7     3     4 ar  
     8     3    38 1   
     9     4     5 ar  
    10     5     6 ar  
    11     5    11 1   
    12     6     7 ar  
    13     6     9 1   
    14     7     8 1   
    15     8    24 1   
    16     8    25 1   
    17     9    10 2   
    18    10    11 1   
    19    10    26 1   
    20    11    12 1   
    21    12    14 1   
    22    12    21 1   
    23    12    27 1   
    24    13    28 1   
    25    13    29 1   
    26    14    15 1   
    27    14    17 1   
    28    14    30 1   
    29    15    31 1   
    30    17    18 1   
    31    17    20 1   
    32    17    32 1   
    33    18    33 1   
    34    20    21 1   
    35    20    22 1   
    36    20    34 1   
    37    22    23 1   
    38    22    35 1   
    39    22    36 1   
    40    23    37 1   
@<TRIPOS>SUBSTRUCTURE
     1 JZU         1 TEMP              0 ****  ****    0 ROOT
