@<TRIPOS>MOLECULE
JZV
   48    49     1     0     0
SMALL
bcc


@<TRIPOS>ATOM
      1 CAA         -1.4510    -2.8000    -1.5760 ca         1 JZV      -0.117000
      2 CAB         -2.8080    -2.9800    -1.7910 ca         1 JZV      -0.129000
      3 CAC         -3.7000    -2.0020    -1.3770 ca         1 JZV      -0.093000
      4 NAD         -4.8080     0.1880     0.8150 n2         1 JZV      -0.363200
      5 OAE         -4.4310    -0.8070     1.6250 os         1 JZV      -0.169300
      6 CAF         -5.0930    -0.7100     2.8820 c3         1 JZV       0.126700
      7 CAG         -0.9860    -1.6490    -0.9520 ca         1 JZV      -0.111000
      8 CAH         -1.8730    -0.6630    -0.5310 ca         1 JZV      -0.050300
      9 CAI         -3.2400    -0.8480    -0.7560 ca         1 JZV      -0.138900
     10 CAJ         -4.2260     0.1690    -0.3180 ce         1 JZV       0.365900
     11 CAK         -4.5670     1.2540    -1.2780 c          1 JZV       0.563800
     12 OAL         -5.5130     2.0610    -0.8470 os         1 JZV      -0.389900
     13 CAM         -5.8900     3.1430    -1.7010 c3         1 JZV       0.126700
     14 OAN         -4.0040     1.3560    -2.3400 o          1 JZV      -0.516000
     15 FAO          6.9000     0.0590     0.2990 f          1 JZV      -0.234967
     16 CAP         -1.4080     0.6070     0.1280 c3         1 JZV       0.182700
     17 OAQ         -0.0310     0.5000     0.4040 os         1 JZV      -0.188300
     18 NAR          0.4100     1.6350     1.0230 n2         1 JZV      -0.418200
     19 CAS          1.6450     1.6000     1.3260 ce         1 JZV       0.418900
     20 CAT          2.5490     0.4470     1.0850 ca         1 JZV      -0.157900
     21 CAU          3.7350     0.6480     0.3860 ca         1 JZV      -0.060000
     22 CAV          4.6040    -0.4110     0.1620 ca         1 JZV      -0.201300
     23 CAW          5.8960    -0.1820    -0.5580 c3         1 JZV       0.721200
     24 FAX          5.8400     0.8650    -1.3880 f          1 JZV      -0.234967
     25 CAY          2.2180     2.8120     1.9870 c3         1 JZV      -0.129400
     26 CAZ          2.2520    -0.8250     1.5700 ca         1 JZV      -0.065000
     27 CBA          3.1310    -1.8750     1.3600 ca         1 JZV      -0.141000
     28 CBB          4.3070    -1.6770     0.6520 ca         1 JZV      -0.070000
     29 FBC          6.2620    -1.2430    -1.2870 f          1 JZV      -0.234967
     30 HAA         -0.7450    -3.5550    -1.8940 ha         1 JZV       0.132000
     31 HAB         -3.1740    -3.8760    -2.2760 ha         1 JZV       0.134000
     32 HAC         -4.7630    -2.1350    -1.5390 ha         1 JZV       0.135000
     33 HAF         -4.8320     0.2150     3.3970 h1         1 JZV       0.046033
     34 HAFA        -6.1760    -0.7720     2.7650 h1         1 JZV       0.046033
     35 HAFB        -4.7450    -1.5580     3.4660 h1         1 JZV       0.046033
     36 HAG          0.0760    -1.5310    -0.7920 ha         1 JZV       0.146000
     37 HAM         -6.6700     3.6800    -1.1700 h1         1 JZV       0.052033
     38 HAMA        -5.0500     3.8120    -1.8860 h1         1 JZV       0.052033
     39 HAMB        -6.2810     2.7820    -2.6520 h1         1 JZV       0.052033
     40 HAP         -1.5990     1.4600    -0.5360 h1         1 JZV       0.054700
     41 HAPA        -1.9680     0.7820     1.0530 h1         1 JZV       0.054700
     42 HAU          3.9690     1.6350     0.0090 ha         1 JZV       0.150000
     43 HAY          2.6220     2.5560     2.9670 hc         1 JZV       0.057033
     44 HAYA         3.0400     3.2260     1.4010 hc         1 JZV       0.057033
     45 HAYB         1.4620     3.5850     2.1080 hc         1 JZV       0.057033
     46 HAZ          1.3400    -0.9980     2.1260 ha         1 JZV       0.148000
     47 HBA          2.8960    -2.8580     1.7450 ha         1 JZV       0.141000
     48 HBB          4.9770    -2.5100     0.4920 ha         1 JZV       0.148000
@<TRIPOS>BOND
     1     1     2 ar  
     2     1     7 ar  
     3     1    30 1   
     4     2     3 ar  
     5     2    31 1   
     6     3     9 ar  
     7     3    32 1   
     8     4     5 1   
     9     4    10 2   
    10     5     6 1   
    11     6    33 1   
    12     6    34 1   
    13     6    35 1   
    14     7     8 ar  
    15     7    36 1   
    16     8     9 ar  
    17     8    16 1   
    18     9    10 1   
    19    10    11 1   
    20    11    12 1   
    21    11    14 2   
    22    12    13 1   
    23    13    37 1   
    24    13    38 1   
    25    13    39 1   
    26    15    23 1   
    27    16    17 1   
    28    16    40 1   
    29    16    41 1   
    30    17    18 1   
    31    18    19 2   
    32    19    20 1   
    33    19    25 1   
    34    20    21 ar  
    35    20    26 ar  
    36    21    22 ar  
    37    21    42 1   
    38    22    23 1   
    39    22    28 ar  
    40    23    24 1   
    41    23    29 1   
    42    25    43 1   
    43    25    44 1   
    44    25    45 1   
    45    26    27 ar  
    46    26    46 1   
    47    27    28 ar  
    48    27    47 1   
    49    28    48 1   
@<TRIPOS>SUBSTRUCTURE
     1 JZV         1 TEMP              0 ****  ****    0 ROOT
