@<TRIPOS>MOLECULE
JZV
   48    49     1     0     0
SMALL
No Charge or Current Charge


@<TRIPOS>ATOM
      1 CAA         -1.5990    -3.0200    -1.4380 ca         1 JZV      -0.099000
      2 CAB         -2.8240    -2.8560    -2.0970 ca         1 JZV      -0.111000
      3 CAC         -3.6510    -1.7670    -1.7790 ca         1 JZV      -0.075000
      4 NAD         -4.7070     0.4660     0.7170 n2         1 JZV      -0.264700
      5 OAE         -4.6550    -0.6720     1.5550 os         1 JZV      -0.291000
      6 CAF         -5.2120    -0.3640     2.8440 c3         1 JZV       0.149900
      7 CAG         -1.1980    -2.0920    -0.4650 ca         1 JZV      -0.093000
      8 CAH         -2.0120    -0.9850    -0.1390 ca         1 JZV      -0.050300
      9 CAI         -3.2620    -0.8270    -0.8000 ca         1 JZV      -0.138900
     10 CAJ         -4.2070     0.3010    -0.4800 ce         1 JZV       0.365900
     11 CAK         -4.5450     1.2970    -1.5800 c          1 JZV       0.514800
     12 OAL         -5.4120     2.2880    -1.1660 os         1 JZV      -0.413100
     13 CAM         -5.8070     3.2930    -2.1190 c3         1 JZV       0.149900
     14 OAN         -4.0980     1.2390    -2.7230 o          1 JZV      -0.467000
     15 FAO          6.9070     0.6180     0.0190 f          1 JZV      -0.113667
     16 CAP         -1.5150     0.0090     0.9190 c3         1 JZV       0.205900
     17 OAQ         -0.1320     0.3190     0.6650 os         1 JZV      -0.310000
     18 NAR          0.3740     1.1840     1.6620 n2         1 JZV      -0.319700
     19 CAS          1.6370     1.4690     1.5360 ce         1 JZV       0.418900
     20 CAT          2.6480     0.3950     1.2420 ca         1 JZV      -0.157900
     21 CAU          3.7800     0.6820     0.4470 ca         1 JZV      -0.042000
     22 CAV          4.7190    -0.3220     0.1250 ca         1 JZV      -0.201300
     23 CAW          5.9470     0.0250    -0.7250 c3         1 JZV       0.357300
     24 FAX          5.6430     0.8780    -1.7300 f          1 JZV      -0.113667
     25 CAY          2.1480     2.8460     1.9110 c3         1 JZV      -0.129400
     26 CAZ          2.4490    -0.9300     1.6890 ca         1 JZV      -0.047000
     27 CBA          3.3830    -1.9320     1.3810 ca         1 JZV      -0.123000
     28 CBB          4.5160    -1.6320     0.6090 ca         1 JZV      -0.052000
     29 FBC          6.5100    -1.0630    -1.3000 f          1 JZV      -0.113667
     30 HAA         -0.9590    -3.8660    -1.6800 ha         1 JZV       0.114000
     31 HAB         -3.1370    -3.5740    -2.8520 ha         1 JZV       0.116000
     32 HAC         -4.6050    -1.6590    -2.2900 ha         1 JZV       0.117000
     33 HAF         -4.6510     0.4440     3.3300 h1         1 JZV       0.046033
     34 HAFA        -6.2610    -0.0540     2.7530 h1         1 JZV       0.046033
     35 HAFB        -5.1730    -1.2460     3.4960 h1         1 JZV       0.046033
     36 HAG         -0.2430    -2.2320     0.0380 ha         1 JZV       0.128000
     37 HAM         -6.4940     4.0110    -1.6540 h1         1 JZV       0.052033
     38 HAMA        -4.9340     3.8480    -2.4880 h1         1 JZV       0.052033
     39 HAMB        -6.3190     2.8400    -2.9780 h1         1 JZV       0.052033
     40 HAP         -2.1070     0.9310     0.8980 h1         1 JZV       0.054700
     41 HAPA        -1.6340    -0.4450     1.9120 h1         1 JZV       0.054700
     42 HAU          3.9290     1.6930     0.0700 ha         1 JZV       0.132000
     43 HAY          3.2330     2.8570     2.0650 hc         1 JZV       0.057033
     44 HAYA         1.9110     3.5760     1.1290 hc         1 JZV       0.057033
     45 HAYB         1.6880     3.1950     2.8430 hc         1 JZV       0.057033
     46 HAZ          1.5770    -1.1840     2.2880 ha         1 JZV       0.130000
     47 HBA          3.2270    -2.9460     1.7420 ha         1 JZV       0.123000
     48 HBB          5.2280    -2.4240     0.3880 ha         1 JZV       0.130000
@<TRIPOS>BOND
     1     1     2 ar  
     2     1     7 ar  
     3     1    30 1   
     4     2     3 ar  
     5     2    31 1   
     6     3     9 ar  
     7     3    32 1   
     8     4     5 1   
     9     4    10 2   
    10     5     6 1   
    11     6    33 1   
    12     6    34 1   
    13     6    35 1   
    14     7     8 ar  
    15     7    36 1   
    16     8     9 ar  
    17     8    16 1   
    18     9    10 1   
    19    10    11 1   
    20    11    12 1   
    21    11    14 2   
    22    12    13 1   
    23    13    37 1   
    24    13    38 1   
    25    13    39 1   
    26    15    23 1   
    27    16    17 1   
    28    16    40 1   
    29    16    41 1   
    30    17    18 1   
    31    18    19 2   
    32    19    20 1   
    33    19    25 1   
    34    20    21 ar  
    35    20    26 ar  
    36    21    22 ar  
    37    21    42 1   
    38    22    23 1   
    39    22    28 ar  
    40    23    24 1   
    41    23    29 1   
    42    25    43 1   
    43    25    44 1   
    44    25    45 1   
    45    26    27 ar  
    46    26    46 1   
    47    27    28 ar  
    48    27    47 1   
    49    28    48 1   
@<TRIPOS>SUBSTRUCTURE
     1 JZV         1 TEMP              0 ****  ****    0 ROOT
