@<TRIPOS>MOLECULE
JZW
   63    67     1     0     0
SMALL
No Charge or Current Charge


@<TRIPOS>ATOM
      1 C1          -0.2400    -0.5360    -1.2640 cc         1 JZW      -0.279800
      2 N1           2.0230    -0.8530    -0.3750 nb         1 JZW      -0.195000
      3 O1           3.3370     6.0530    -0.0370 os         1 JZW      -0.442000
      4 S1          -0.2980     2.1100    -1.5110 ss         1 JZW       0.070400
      5 C2          -1.0620     0.5020    -1.6760 cd         1 JZW      -0.049600
      6 N2           3.3710     1.0940    -0.0160 nb         1 JZW      -0.291000
      7 O2          -6.9770    -1.1780     2.5080 o          1 JZW      -0.531000
      8 S2          -6.9340    -1.8780     1.2210 s6         1 JZW       1.196100
      9 C3           1.0320    -0.0550    -0.7990 ca         1 JZW       0.166800
     10 N3           2.6310     3.2770    -0.4310 nh         1 JZW      -0.789300
     11 O3          -8.1620    -1.9880     0.4260 o          1 JZW      -0.531000
     12 C4           1.1520     1.3160    -0.8490 ca         1 JZW      -0.337000
     13 N4          -3.3630    -0.4400    -1.3750 n3         1 JZW      -0.730600
     14 O4           4.5340    -5.2800     2.2590 oh         1 JZW      -0.656000
     15 C5           3.1710    -0.2450     0.0050 cp         1 JZW       0.248500
     16 N5          -5.7910    -1.0410     0.2440 n3         1 JZW      -0.724500
     17 C6           2.3670     1.8900    -0.4350 ca         1 JZW       0.457900
     18 C7           4.3090    -1.1180     0.4780 cp         1 JZW      -0.152500
     19 C8           3.9050     3.8400    -0.9930 c6         1 JZW       0.187800
     20 C9           4.3990     5.0830    -0.1940 c6         1 JZW       0.134600
     21 C10          2.1970     5.5160     0.6760 c6         1 JZW       0.134600
     22 C11          1.5910     4.2960    -0.0780 c6         1 JZW       0.187800
     23 C12         -2.4680     0.3890    -2.2190 c3         1 JZW       0.239000
     24 C13         -4.6960    -0.6740    -2.0090 c6         1 JZW       0.167800
     25 C14         -5.6160    -1.5810    -1.1360 c6         1 JZW       0.192800
     26 C15         -4.4650    -0.7970     0.8830 c6         1 JZW       0.192800
     27 C16         -3.5470     0.1070     0.0060 c6         1 JZW       0.167800
     28 C17         -6.2420    -3.5080     1.4610 c3         1 JZW      -0.382100
     29 C18          5.5500    -0.5580     0.8930 ca         1 JZW      -0.063000
     30 C19          6.6060    -1.3720     1.3340 ca         1 JZW      -0.134000
     31 C20          6.4570    -2.7660     1.3720 ca         1 JZW      -0.065000
     32 C21          5.2460    -3.3550     0.9680 ca         1 JZW      -0.104300
     33 C22          4.1870    -2.5360     0.5280 ca         1 JZW      -0.060000
     34 C23          5.0810    -4.8690     1.0020 c3         1 JZW       0.210900
     35 H1          -0.5410    -1.5790    -1.2870 ha         1 JZW       0.229000
     36 HO4          4.4540    -6.2590     2.2240 ho         1 JZW       0.442000
     37 H8           4.7090     3.0900    -0.9920 h1         1 JZW       0.066450
     38 H8A          3.7500     4.1340    -2.0420 h1         1 JZW       0.066450
     39 H9           5.2420     5.5520    -0.7200 h1         1 JZW       0.056950
     40 H9A          4.7510     4.7690     0.7990 h1         1 JZW       0.056950
     41 H10          2.5140     5.2090     1.6840 h1         1 JZW       0.056950
     42 H10A         1.4360     6.3010     0.7850 h1         1 JZW       0.056950
     43 H11          1.0930     4.6580    -0.9900 h1         1 JZW       0.066450
     44 H11A         0.8170     3.8480     0.5630 h1         1 JZW       0.066450
     45 H12         -2.8860     1.3990    -2.3330 h1         1 JZW       0.048700
     46 H12A        -2.4000    -0.0450    -3.2260 h1         1 JZW       0.048700
     47 H13         -5.2100     0.2850    -2.1750 h1         1 JZW       0.048700
     48 H13A        -4.5720    -1.1470    -2.9950 h1         1 JZW       0.048700
     49 H14         -5.1730    -2.5880    -1.1030 h1         1 JZW       0.061700
     50 H14A        -6.5860    -1.6720    -1.6460 h1         1 JZW       0.061700
     51 H15         -4.5870    -0.3100     1.8610 h1         1 JZW       0.061700
     52 H15A        -3.9410    -1.7480     1.0590 h1         1 JZW       0.061700
     53 H16         -2.5770     0.2100     0.5150 h1         1 JZW       0.048700
     54 H16A        -3.9920     1.1120    -0.0420 h1         1 JZW       0.048700
     55 H17         -6.9470    -4.0700     2.0810 h1         1 JZW       0.101033
     56 H17A        -6.1270    -3.9750     0.4780 h1         1 JZW       0.101033
     57 H17B        -5.2790    -3.3960     1.9680 h1         1 JZW       0.101033
     58 H18          5.7040     0.5180     0.8780 ha         1 JZW       0.128000
     59 H19          7.5440    -0.9200     1.6470 ha         1 JZW       0.114000
     60 H20          7.2800    -3.3890     1.7160 ha         1 JZW       0.123000
     61 H22          3.2590    -3.0160     0.2240 ha         1 JZW       0.133000
     62 H23          6.0580    -5.3450     0.8380 h1         1 JZW       0.025700
     63 H23A         4.4230    -5.1810     0.1800 h1         1 JZW       0.025700
@<TRIPOS>BOND
     1     1     5 2   
     2     1     9 1   
     3     1    35 1   
     4     2     9 ar  
     5     2    15 ar  
     6     3    20 1   
     7     3    21 1   
     8     4     5 1   
     9     4    12 1   
    10     5    23 1   
    11     6    15 ar  
    12     6    17 ar  
    13     7     8 2   
    14     8    11 2   
    15     8    16 1   
    16     8    28 1   
    17     9    12 ar  
    18    10    17 1   
    19    10    19 1   
    20    10    22 1   
    21    12    17 ar  
    22    13    23 1   
    23    13    24 1   
    24    13    27 1   
    25    14    34 1   
    26    14    36 1   
    27    15    18 1   
    28    16    25 1   
    29    16    26 1   
    30    18    29 ar  
    31    18    33 ar  
    32    19    20 1   
    33    19    37 1   
    34    19    38 1   
    35    20    39 1   
    36    20    40 1   
    37    21    22 1   
    38    21    41 1   
    39    21    42 1   
    40    22    43 1   
    41    22    44 1   
    42    23    45 1   
    43    23    46 1   
    44    24    25 1   
    45    24    47 1   
    46    24    48 1   
    47    25    49 1   
    48    25    50 1   
    49    26    27 1   
    50    26    51 1   
    51    26    52 1   
    52    27    53 1   
    53    27    54 1   
    54    28    55 1   
    55    28    56 1   
    56    28    57 1   
    57    29    30 ar  
    58    29    58 1   
    59    30    31 ar  
    60    30    59 1   
    61    31    32 ar  
    62    31    60 1   
    63    32    33 ar  
    64    32    34 1   
    65    33    61 1   
    66    34    62 1   
    67    34    63 1   
@<TRIPOS>SUBSTRUCTURE
     1 JZW         1 TEMP              0 ****  ****    0 ROOT
