@<TRIPOS>MOLECULE
JZW
   63    67     1     0     0
SMALL
bcc


@<TRIPOS>ATOM
      1 C1          -0.5000    -0.1960    -0.9310 cc         1 JZW      -0.229800
      2 N1           1.7740    -0.6660    -0.1670 nb         1 JZW      -0.721000
      3 O1           3.6950     5.8990    -0.0240 os         1 JZW      -0.395600
      4 S1          -0.3430     2.3150    -1.4560 ss         1 JZW      -0.056500
      5 C2          -1.2340     0.8360    -1.4070 cd         1 JZW      -0.049600
      6 N2           3.2940     1.1380    -0.1580 nb         1 JZW      -0.817000
      7 O2          -6.8370    -1.6210     2.3750 o          1 JZW      -0.601800
      8 S2          -6.6320    -2.2820     1.0940 s6         1 JZW       1.226900
      9 C3           0.8370     0.1860    -0.6030 ca         1 JZW       0.495100
     10 N3           2.7980     3.3040    -0.7000 nh         1 JZW      -0.789300
     11 O3          -7.7800    -2.4960     0.2260 o          1 JZW      -0.601800
     12 C4           1.0770     1.5480    -0.8190 ca         1 JZW      -0.340700
     13 N4          -3.4100    -0.1930    -1.1630 n3         1 JZW      -0.730600
     14 O4           5.1440    -5.3560     2.0990 oh         1 JZW      -0.593800
     15 C5           2.9670    -0.1380     0.0210 cp         1 JZW       0.774500
     16 N5          -5.5410    -1.3750     0.2480 n3         1 JZW      -0.724500
     17 C6           2.3870     2.0270    -0.5590 ca         1 JZW       0.786200
     18 C7           4.0490    -1.0420     0.4800 cp         1 JZW      -0.152500
     19 C8           4.2110     3.6500    -0.7420 c6         1 JZW       0.187800
     20 C9           4.5110     4.7760     0.2280 c6         1 JZW       0.111400
     21 C10          2.3340     5.5600     0.0810 c6         1 JZW       0.111400
     22 C11          1.9350     4.4540    -0.8870 c6         1 JZW       0.187800
     23 C12         -2.6550     0.8040    -1.8840 c3         1 JZW       0.239000
     24 C13         -4.6140    -0.6060    -1.8550 c6         1 JZW       0.167800
     25 C14         -5.2570    -1.7730    -1.1300 c6         1 JZW       0.192800
     26 C15         -4.3460    -0.9250     0.9610 c6         1 JZW       0.192800
     27 C16         -3.7180     0.2190     0.1920 c6         1 JZW       0.167800
     28 C17         -5.8680    -3.8600     1.3990 c3         1 JZW      -0.271300
     29 C18          5.2850    -0.5360     0.8760 ca         1 JZW      -0.081000
     30 C19          6.2790    -1.3990     1.3150 ca         1 JZW      -0.152000
     31 C20          6.0590    -2.7680     1.3540 ca         1 JZW      -0.083000
     32 C21          4.8300    -3.2910     0.9560 ca         1 JZW      -0.104300
     33 C22          3.8360    -2.4200     0.5320 ca         1 JZW      -0.078000
     34 C23          4.5870    -4.7750     0.9430 c3         1 JZW       0.187700
     35 H1          -0.8810    -1.2000    -0.8100 ha         1 JZW       0.179000
     36 HO4          5.1460    -6.3100     1.9810 ho         1 JZW       0.403000
     37 H8           4.8110     2.7780    -0.4980 h1         1 JZW       0.066450
     38 H8A          4.4640     3.9640    -1.7610 h1         1 JZW       0.066450
     39 H9           5.5480     5.0910     0.1150 h1         1 JZW       0.056950
     40 H9A          4.3720     4.4210     1.2600 h1         1 JZW       0.056950
     41 H10          2.0950     5.2360     1.1030 h1         1 JZW       0.056950
     42 H10A         1.7510     6.4550    -0.1370 h1         1 JZW       0.056950
     43 H11          1.9920     4.8100    -1.9210 h1         1 JZW       0.066450
     44 H11A         0.8980     4.2150    -0.6660 h1         1 JZW       0.066450
     45 H12         -3.1000     1.8100    -1.8210 h1         1 JZW       0.048700
     46 H12A        -2.6540     0.5410    -2.9460 h1         1 JZW       0.048700
     47 H13         -5.3480     0.2100    -1.9450 h1         1 JZW       0.048700
     48 H13A        -4.3550    -0.9300    -2.8650 h1         1 JZW       0.048700
     49 H14         -4.5810    -2.6370    -1.1590 h1         1 JZW       0.061700
     50 H14A        -6.1820    -2.0420    -1.6360 h1         1 JZW       0.061700
     51 H15         -4.6150    -0.5810     1.9570 h1         1 JZW       0.061700
     52 H15A        -3.6130    -1.7360     1.0600 h1         1 JZW       0.061700
     53 H16         -2.7980     0.5060     0.7040 h1         1 JZW       0.048700
     54 H16A        -4.3930     1.0900     0.2090 h1         1 JZW       0.048700
     55 H17         -6.5800    -4.4770     1.9450 h1         1 JZW       0.101033
     56 H17A        -5.6220    -4.3360     0.4520 h1         1 JZW       0.101033
     57 H17B        -4.9690    -3.7230     1.9950 h1         1 JZW       0.101033
     58 H18          5.4650     0.5300     0.8480 ha         1 JZW       0.146000
     59 H19          7.2340    -0.9990     1.6290 ha         1 JZW       0.132000
     60 H20          6.8480    -3.4260     1.6940 ha         1 JZW       0.141000
     61 H22          2.8730    -2.8120     0.2310 ha         1 JZW       0.151000
     62 H23          5.0350    -5.1970     0.0340 h1         1 JZW       0.025700
     63 H23A         3.5080    -4.9610     0.8720 h1         1 JZW       0.025700
@<TRIPOS>BOND
     1     1     5 2   
     2     1     9 1   
     3     1    35 1   
     4     2     9 ar  
     5     2    15 ar  
     6     3    20 1   
     7     3    21 1   
     8     4     5 1   
     9     4    12 1   
    10     5    23 1   
    11     6    15 ar  
    12     6    17 ar  
    13     7     8 2   
    14     8    11 2   
    15     8    16 1   
    16     8    28 1   
    17     9    12 ar  
    18    10    17 1   
    19    10    19 1   
    20    10    22 1   
    21    12    17 ar  
    22    13    23 1   
    23    13    24 1   
    24    13    27 1   
    25    14    34 1   
    26    14    36 1   
    27    15    18 1   
    28    16    25 1   
    29    16    26 1   
    30    18    29 ar  
    31    18    33 ar  
    32    19    20 1   
    33    19    37 1   
    34    19    38 1   
    35    20    39 1   
    36    20    40 1   
    37    21    22 1   
    38    21    41 1   
    39    21    42 1   
    40    22    43 1   
    41    22    44 1   
    42    23    45 1   
    43    23    46 1   
    44    24    25 1   
    45    24    47 1   
    46    24    48 1   
    47    25    49 1   
    48    25    50 1   
    49    26    27 1   
    50    26    51 1   
    51    26    52 1   
    52    27    53 1   
    53    27    54 1   
    54    28    55 1   
    55    28    56 1   
    56    28    57 1   
    57    29    30 ar  
    58    29    58 1   
    59    30    31 ar  
    60    30    59 1   
    61    31    32 ar  
    62    31    60 1   
    63    32    33 ar  
    64    32    34 1   
    65    33    61 1   
    66    34    62 1   
    67    34    63 1   
@<TRIPOS>SUBSTRUCTURE
     1 JZW         1 TEMP              0 ****  ****    0 ROOT
