@<TRIPOS>MOLECULE
JZX
   60    64     1     0     0
SMALL
abcg2


@<TRIPOS>ATOM
      1 C1           2.9130    -0.4730     0.2260 cp         1 JZX       0.262500
      2 N1           1.6900    -0.9400     0.0670 nb         1 JZX      -0.194000
      3 O1           3.9960     5.5690    -0.8730 os         1 JZX      -0.441000
      4 S1          -0.3020     2.1390    -1.1890 ss         1 JZX       0.074400
      5 C2           2.4270     1.7130    -0.3570 ca         1 JZX       0.437900
      6 N2           3.2950     0.7910     0.0380 nb         1 JZX      -0.287000
      7 O2          -6.9040    -1.6980     2.6790 o          1 JZX      -0.531500
      8 S2          -6.7130    -2.3360     1.3860 s6         1 JZX       1.197100
      9 C3           0.7870    -0.0440    -0.3510 ca         1 JZX       0.163800
     10 N3          -3.4760    -0.2480    -0.8470 n3         1 JZX      -0.732600
     11 O3          -7.8670    -2.5200     0.5180 o          1 JZX      -0.531500
     12 C4           1.0910     1.3030    -0.5830 ca         1 JZX      -0.328000
     13 N4           2.9040     2.9710    -0.5510 nh         1 JZX      -0.766300
     14 C5          -1.2690     0.7070    -1.1060 cc         1 JZX      -0.049600
     15 N5          -5.6140    -1.4250     0.5520 n3         1 JZX      -0.723500
     16 C6          -0.5760    -0.3590    -0.6420 cd         1 JZX      -0.279800
     17 N6           6.2490    -1.8410     1.2240 nb         1 JZX      -0.761000
     18 C7          -2.6990     0.7440    -1.5520 c3         1 JZX       0.240000
     19 N7           6.9840    -3.9320     1.8210 nv         1 JZX      -1.062900
     20 C8           3.9510    -1.4210     0.6570 cp         1 JZX      -0.268500
     21 C9          -4.6880    -0.6310    -1.5420 c6         1 JZX       0.169300
     22 C10         -5.3410    -1.8030    -0.8350 c6         1 JZX       0.192800
     23 C11         -4.4110    -1.0020     1.2690 c6         1 JZX       0.192800
     24 C12         -3.7710     0.1460     0.5150 c6         1 JZX       0.169300
     25 C13          4.3190     3.2280    -0.3110 c6         1 JZX       0.177300
     26 C14          4.7730     4.4220    -1.1290 c6         1 JZX       0.142600
     27 C15          2.6430     5.3190    -1.1670 c6         1 JZX       0.142600
     28 C16          2.0930     4.1640    -0.3520 c6         1 JZX       0.177300
     29 C17          5.2730    -1.0320     0.8370 ca         1 JZX       0.431900
     30 C18          5.9600    -3.1220     1.4630 ca         1 JZX       0.619900
     31 C19          3.6590    -2.7680     0.9130 ca         1 JZX       0.010000
     32 C20          4.6520    -3.6250     1.3140 ca         1 JZX      -0.252000
     33 C21         -5.9680    -3.9290     1.6570 c3         1 JZX      -0.382100
     34 H6          -1.0060    -1.3400    -0.5040 ha         1 JZX       0.228000
     35 H7          -2.7310     0.5190    -2.6220 h1         1 JZX       0.048700
     36 H7A         -3.1040     1.7630    -1.4440 h1         1 JZX       0.048700
     37 HN7          7.8390    -3.4970     2.1230 hn         1 JZX       0.480000
     38 HN7A         6.7760    -4.8210     2.2440 hn         1 JZX       0.480000
     39 H9          -5.4120     0.1960    -1.6120 h1         1 JZX       0.048700
     40 H9A         -4.4380    -0.9380    -2.5590 h1         1 JZX       0.048700
     41 H10         -4.6740    -2.6730    -0.8810 h1         1 JZX       0.061700
     42 H10A        -6.2710    -2.0540    -1.3400 h1         1 JZX       0.061700
     43 H11         -4.6740    -0.6720     2.2710 h1         1 JZX       0.061700
     44 H11A        -3.6880    -1.8240     1.3510 h1         1 JZX       0.061700
     45 H12         -2.8450     0.4130     1.0270 h1         1 JZX       0.048700
     46 H12A        -4.4350     1.0250     0.5490 h1         1 JZX       0.048700
     47 H13          4.5000     3.4060     0.7560 h1         1 JZX       0.061200
     48 H13A         4.9060     2.3610    -0.6010 h1         1 JZX       0.061200
     49 H14          4.7370     4.1650    -2.1970 h1         1 JZX       0.056450
     50 H14A         5.8060     4.6590    -0.8760 h1         1 JZX       0.056450
     51 H15          2.0790     6.2230    -0.9320 h1         1 JZX       0.056450
     52 H15A         2.5110     5.1030    -2.2360 h1         1 JZX       0.056450
     53 H16          1.0610     4.0140    -0.6550 h1         1 JZX       0.061200
     54 H16A         2.0780     4.4270     0.7130 h1         1 JZX       0.061200
     55 H17          5.5580    -0.0010     0.6570 h4         1 JZX       0.032100
     56 H19          2.6470    -3.1320     0.7940 ha         1 JZX       0.137000
     57 H20          4.4420    -4.6670     1.5170 ha         1 JZX       0.121000
     58 H21         -6.6870    -4.5470     2.1910 h1         1 JZX       0.100700
     59 H21A        -5.7290    -4.3900     0.7000 h1         1 JZX       0.100700
     60 H21B        -5.0660    -3.8160     2.2550 h1         1 JZX       0.100700
@<TRIPOS>BOND
     1     1     2 ar  
     2     1     6 ar  
     3     1    20 1   
     4     2     9 ar  
     5     3    26 1   
     6     3    27 1   
     7     4    12 1   
     8     4    14 1   
     9     5     6 ar  
    10     5    12 ar  
    11     5    13 1   
    12     7     8 2   
    13     8    11 2   
    14     8    15 1   
    15     8    33 1   
    16     9    12 ar  
    17     9    16 1   
    18    10    18 1   
    19    10    21 1   
    20    10    24 1   
    21    13    25 1   
    22    13    28 1   
    23    14    16 2   
    24    14    18 1   
    25    15    22 1   
    26    15    23 1   
    27    16    34 1   
    28    17    29 ar  
    29    17    30 ar  
    30    18    35 1   
    31    18    36 1   
    32    19    30 1   
    33    19    37 1   
    34    19    38 1   
    35    20    29 ar  
    36    20    31 ar  
    37    21    22 1   
    38    21    39 1   
    39    21    40 1   
    40    22    41 1   
    41    22    42 1   
    42    23    24 1   
    43    23    43 1   
    44    23    44 1   
    45    24    45 1   
    46    24    46 1   
    47    25    26 1   
    48    25    47 1   
    49    25    48 1   
    50    26    49 1   
    51    26    50 1   
    52    27    28 1   
    53    27    51 1   
    54    27    52 1   
    55    28    53 1   
    56    28    54 1   
    57    29    55 1   
    58    30    32 ar  
    59    31    32 ar  
    60    31    56 1   
    61    32    57 1   
    62    33    58 1   
    63    33    59 1   
    64    33    60 1   
@<TRIPOS>SUBSTRUCTURE
     1 JZX         1 TEMP              0 ****  ****    0 ROOT
