@<TRIPOS>MOLECULE
JZX
   60    64     1     0     0
SMALL
No Charge or Current Charge


@<TRIPOS>ATOM
      1 C1           3.1670    -0.6560     0.1790 cp         1 JZX       0.262500
      2 N1           1.9840    -1.2250    -0.1490 nb         1 JZX      -0.194000
      3 O1           3.5410     5.6530    -0.4270 os         1 JZX      -0.441000
      4 S1          -0.1760     1.8000    -1.4720 ss         1 JZX       0.074400
      5 C2           2.4790     1.4860    -0.4010 ca         1 JZX       0.437900
      6 N2           3.4460     0.6650     0.0640 nb         1 JZX      -0.287000
      7 O2          -6.9800    -0.9680     2.7930 o          1 JZX      -0.531500
      8 S2          -6.9830    -1.7340     1.5420 s6         1 JZX       1.197100
      9 C3           1.0430    -0.3930    -0.6180 ca         1 JZX       0.163800
     10 N3          -3.3870    -0.5810    -1.1580 n3         1 JZX      -0.732600
     11 O3          -8.2240    -1.8320     0.7670 o          1 JZX      -0.531500
     12 C4           1.2340     0.9560    -0.7660 ca         1 JZX      -0.328000
     13 N4           2.7860     2.8560    -0.5170 nh         1 JZX      -0.766300
     14 C5          -1.0540     0.2420    -1.5310 cc         1 JZX      -0.049600
     15 N5          -5.8180    -0.9960     0.5130 n3         1 JZX      -0.723500
     16 C6          -0.2660    -0.7900    -1.0530 cd         1 JZX      -0.279800
     17 N6           6.5390    -1.7840     1.5520 nb         1 JZX      -0.761000
     18 C7          -2.4680     0.1660    -2.0520 c3         1 JZX       0.240000
     19 N7           7.3840    -3.7070     2.1620 nv         1 JZX      -1.062900
     20 C8           4.2520    -1.5510     0.7050 cp         1 JZX      -0.268500
     21 C9          -4.7350    -0.7900    -1.7670 c6         1 JZX       0.169300
     22 C10         -5.6820    -1.6120    -0.8390 c6         1 JZX       0.192800
     23 C11         -4.4750    -0.7760     1.1260 c6         1 JZX       0.192800
     24 C12         -3.5310     0.0440     0.1940 c6         1 JZX       0.169300
     25 C13          4.1900     3.2960    -0.8120 c6         1 JZX       0.177300
     26 C14          4.2410     4.7650    -1.3300 c6         1 JZX       0.142600
     27 C15          2.1490     5.2920    -0.2610 c6         1 JZX       0.142600
     28 C16          2.0200     3.8470     0.3050 c6         1 JZX       0.177300
     29 C17          5.5230    -1.0310     1.0720 ca         1 JZX       0.431900
     30 C18          6.3150    -3.0790     1.6750 ca         1 JZX       0.619900
     31 C19          4.0630    -2.9500     0.8620 ca         1 JZX       0.010000
     32 C20          5.1220    -3.7210     1.3590 ca         1 JZX      -0.252000
     33 C21         -6.3560    -3.3770     1.8580 c3         1 JZX      -0.382100
     34 H6          -0.6210    -1.8150    -1.0020 ha         1 JZX       0.228000
     35 H7          -2.4330    -0.3180    -3.0380 h1         1 JZX       0.048700
     36 H7A         -2.8420     1.1870    -2.2110 h1         1 JZX       0.048700
     37 HN7          8.0780    -3.0930     2.5700 hn         1 JZX       0.480000
     38 HN7A         7.2320    -4.5910     2.6330 hn         1 JZX       0.480000
     39 H9          -5.2110     0.1800    -1.9760 h1         1 JZX       0.048700
     40 H9A         -4.6430    -1.3160    -2.7280 h1         1 JZX       0.048700
     41 H10         -5.2810    -2.6330    -0.7590 h1         1 JZX       0.061700
     42 H10A        -6.6610    -1.6880    -1.3340 h1         1 JZX       0.061700
     43 H11         -4.5650    -0.2360     2.0790 h1         1 JZX       0.061700
     44 H11A        -3.9890    -1.7380     1.3450 h1         1 JZX       0.061700
     45 H12         -2.5520     0.1310     0.6880 h1         1 JZX       0.048700
     46 H12A        -3.9340     1.0630     0.1000 h1         1 JZX       0.048700
     47 H13          4.8090     3.2190     0.0940 h1         1 JZX       0.061200
     48 H13A         4.6420     2.6450    -1.5750 h1         1 JZX       0.061200
     49 H14          3.7780     4.8240    -2.3260 h1         1 JZX       0.056450
     50 H14A         5.2860     5.0920    -1.4210 h1         1 JZX       0.056450
     51 H15          1.6710     6.0050     0.4260 h1         1 JZX       0.056450
     52 H15A         1.6380     5.3600    -1.2320 h1         1 JZX       0.056450
     53 H16          0.9540     3.5850     0.3500 h1         1 JZX       0.061200
     54 H16A         2.3930     3.8400     1.3390 h1         1 JZX       0.061200
     55 H17          5.7420     0.0330     0.9810 h4         1 JZX       0.032100
     56 H19          3.1210    -3.4330     0.6060 ha         1 JZX       0.137000
     57 H20          5.0150    -4.7930     1.4920 ha         1 JZX       0.121000
     58 H21         -7.0770    -3.8770     2.5130 h1         1 JZX       0.100700
     59 H21A        -6.2730    -3.8980     0.9000 h1         1 JZX       0.100700
     60 H21B        -5.3830    -3.2800     2.3490 h1         1 JZX       0.100700
@<TRIPOS>BOND
     1     1     2 ar  
     2     1     6 ar  
     3     1    20 1   
     4     2     9 ar  
     5     3    26 1   
     6     3    27 1   
     7     4    12 1   
     8     4    14 1   
     9     5     6 ar  
    10     5    12 ar  
    11     5    13 1   
    12     7     8 2   
    13     8    11 2   
    14     8    15 1   
    15     8    33 1   
    16     9    12 ar  
    17     9    16 1   
    18    10    18 1   
    19    10    21 1   
    20    10    24 1   
    21    13    25 1   
    22    13    28 1   
    23    14    16 2   
    24    14    18 1   
    25    15    22 1   
    26    15    23 1   
    27    16    34 1   
    28    17    29 ar  
    29    17    30 ar  
    30    18    35 1   
    31    18    36 1   
    32    19    30 1   
    33    19    37 1   
    34    19    38 1   
    35    20    29 ar  
    36    20    31 ar  
    37    21    22 1   
    38    21    39 1   
    39    21    40 1   
    40    22    41 1   
    41    22    42 1   
    42    23    24 1   
    43    23    43 1   
    44    23    44 1   
    45    24    45 1   
    46    24    46 1   
    47    25    26 1   
    48    25    47 1   
    49    25    48 1   
    50    26    49 1   
    51    26    50 1   
    52    27    28 1   
    53    27    51 1   
    54    27    52 1   
    55    28    53 1   
    56    28    54 1   
    57    29    55 1   
    58    30    32 ar  
    59    31    32 ar  
    60    31    56 1   
    61    32    57 1   
    62    33    58 1   
    63    33    59 1   
    64    33    60 1   
@<TRIPOS>SUBSTRUCTURE
     1 JZX         1 TEMP              0 ****  ****    0 ROOT
