@<TRIPOS>MOLECULE
JZY
   62    66     1     0     0
SMALL
No Charge or Current Charge


@<TRIPOS>ATOM
      1 C1          -2.3710    -1.6710    -0.2830 ca         1 JZY       0.439900
      2 N2          -3.3230    -0.7940     0.1020 nb         1 JZY      -0.290000
      3 C3          -3.0410     0.5300     0.0320 cp         1 JZY       0.268500
      4 N4          -1.8690     1.0470    -0.4020 nb         1 JZY      -0.191000
      5 C5          -0.9370     0.1580    -0.7700 ca         1 JZY       0.161800
      6 C6          -1.1290    -1.1990    -0.7290 ca         1 JZY      -0.328000
      7 S7           0.3140    -2.1370    -1.2160 ss         1 JZY       0.080400
      8 C8           1.1880    -0.6020    -1.5040 cc         1 JZY      -0.049600
      9 C9           0.3850     0.4880    -1.2210 cd         1 JZY      -0.279800
     10 N10         -2.6770    -3.0440    -0.1980 nh         1 JZY      -0.774300
     11 C11         -3.6200    -3.5460     0.8560 c6         1 JZY       0.178800
     12 C12         -3.4930    -5.0850     1.0660 c6         1 JZY       0.143100
     13 O13         -3.6170    -5.7880    -0.1940 os         1 JZY      -0.443000
     14 C14         -2.6100    -5.3880    -1.1540 c6         1 JZY       0.143100
     15 C15         -2.7090    -3.8630    -1.4530 c6         1 JZY       0.178800
     16 C16         -4.1580     1.4730     0.3710 cp         1 JZY      -0.329500
     17 C17         -5.5040     1.0920     0.1310 ca         1 JZY       0.189900
     18 N18         -6.5470     1.8960     0.4030 nb         1 JZY      -0.260000
     19 C19         -6.2440     3.0870     0.9250 ca         1 JZY       0.401900
     20 N20         -5.0320     3.5690     1.2120 nb         1 JZY      -0.279000
     21 C21         -3.9790     2.7700     0.9420 ca         1 JZY       0.224300
     22 C22         -2.6320     3.3560     1.3450 c3         1 JZY      -0.148400
     23 N23         -7.2890     3.9040     1.1980 nv         1 JZY      -1.069900
     24 C24          2.6190    -0.6020    -1.9840 c3         1 JZY       0.239000
     25 N25          3.5020     0.3020    -1.2050 n3         1 JZY      -0.729600
     26 C26          4.8690     0.4190    -1.7970 c6         1 JZY       0.167800
     27 C27          5.7770     1.4040    -0.9980 c6         1 JZY       0.192800
     28 N28          5.8710     1.0360     0.4450 n3         1 JZY      -0.724500
     29 C29          4.5100     0.9090     1.0430 c6         1 JZY       0.192800
     30 C30          3.6040    -0.0740     0.2400 c6         1 JZY       0.167800
     31 S31          6.9950     1.9580     1.3660 s6         1 JZY       1.196100
     32 O32          6.9550     1.4230     2.7310 o          1 JZY      -0.530500
     33 O33          8.2600     1.9360     0.6260 o          1 JZY      -0.530500
     34 C34          6.3440     3.6230     1.3680 c3         1 JZY      -0.382100
     35 H9           0.7380     1.5100    -1.3190 ha         1 JZY       0.228000
     36 H11         -3.4190    -3.0490     1.8160 h1         1 JZY       0.061950
     37 H11A        -4.6590    -3.3120     0.5770 h1         1 JZY       0.061950
     38 H12         -2.5170    -5.3190     1.5150 h1         1 JZY       0.056200
     39 H12A        -4.2760    -5.4340     1.7530 h1         1 JZY       0.056200
     40 H14         -1.6130    -5.6250    -0.7550 h1         1 JZY       0.056200
     41 H14A        -2.7500    -5.9590    -2.0820 h1         1 JZY       0.056200
     42 H15         -3.6460    -3.6720    -1.9970 h1         1 JZY       0.061950
     43 H15A        -1.8880    -3.5860    -2.1280 h1         1 JZY       0.061950
     44 H17         -5.7530     0.1250    -0.3040 h4         1 JZY       0.037100
     45 H22         -2.0690     3.6860     0.4650 hc         1 JZY       0.061700
     46 H22A        -2.7450     4.2250     2.0050 hc         1 JZY       0.061700
     47 H22B        -2.0260     2.6200     1.8850 hc         1 JZY       0.061700
     48 HN23        -8.1940     3.6810     0.7900 hn         1 JZY       0.504500
     49 HN2A        -7.1010     4.8880     1.3760 hn         1 JZY       0.504500
     50 H24          3.0050    -1.6300    -1.9480 h1         1 JZY       0.049200
     51 H24A         2.6150    -0.2980    -3.0400 h1         1 JZY       0.049200
     52 H26          5.3580    -0.5660    -1.8170 h1         1 JZY       0.048700
     53 H26A         4.8060     0.7680    -2.8380 h1         1 JZY       0.048700
     54 H27          6.7720     1.4050    -1.4670 h1         1 JZY       0.061700
     55 H27A         5.3660     2.4180    -1.1120 h1         1 JZY       0.061700
     56 H29          4.5710     0.5450     2.0780 h1         1 JZY       0.061700
     57 H29A         4.0090     1.8870     1.0740 h1         1 JZY       0.061700
     58 H30          2.6100    -0.0870     0.7090 h1         1 JZY       0.048700
     59 H30A         4.0190    -1.0890     0.3380 h1         1 JZY       0.048700
     60 H34          5.3560     3.6000     1.8380 h1         1 JZY       0.101033
     61 H34A         7.0380     4.2390     1.9490 h1         1 JZY       0.101033
     62 H34B         6.2900     3.9660     0.3310 h1         1 JZY       0.101033
@<TRIPOS>BOND
     1     1     2 ar  
     2     1     6 ar  
     3     1    10 1   
     4     2     3 ar  
     5     3     4 ar  
     6     3    16 1   
     7     4     5 ar  
     8     5     6 ar  
     9     5     9 1   
    10     6     7 1   
    11     7     8 1   
    12     8     9 2   
    13     8    24 1   
    14     9    35 1   
    15    10    11 1   
    16    10    15 1   
    17    11    12 1   
    18    11    36 1   
    19    11    37 1   
    20    12    13 1   
    21    12    38 1   
    22    12    39 1   
    23    13    14 1   
    24    14    15 1   
    25    14    40 1   
    26    14    41 1   
    27    15    42 1   
    28    15    43 1   
    29    16    17 ar  
    30    16    21 ar  
    31    17    18 ar  
    32    17    44 1   
    33    18    19 ar  
    34    19    20 ar  
    35    19    23 1   
    36    20    21 ar  
    37    21    22 1   
    38    22    45 1   
    39    22    46 1   
    40    22    47 1   
    41    23    48 1   
    42    23    49 1   
    43    24    25 1   
    44    24    50 1   
    45    24    51 1   
    46    25    26 1   
    47    25    30 1   
    48    26    27 1   
    49    26    52 1   
    50    26    53 1   
    51    27    28 1   
    52    27    54 1   
    53    27    55 1   
    54    28    29 1   
    55    28    31 1   
    56    29    30 1   
    57    29    56 1   
    58    29    57 1   
    59    30    58 1   
    60    30    59 1   
    61    31    32 2   
    62    31    33 2   
    63    31    34 1   
    64    34    60 1   
    65    34    61 1   
    66    34    62 1   
@<TRIPOS>SUBSTRUCTURE
     1 JZY         1 TEMP              0 ****  ****    0 ROOT
