@<TRIPOS>MOLECULE
JZY
   62    66     1     0     0
SMALL
abcg2


@<TRIPOS>ATOM
      1 C1          -2.3960    -1.7480    -0.4300 ca         1 JZY       0.439900
      2 N2          -3.2330    -0.8130    -0.0040 nb         1 JZY      -0.290000
      3 C3          -2.8590     0.4700     0.0440 cp         1 JZY       0.268500
      4 N4          -1.6770     0.9380    -0.3010 nb         1 JZY      -0.191000
      5 C5          -0.7860     0.0160    -0.6910 ca         1 JZY       0.161800
      6 C6          -1.0880    -1.3460    -0.7900 ca         1 JZY      -0.328000
      7 S7           0.3210    -2.2500    -1.2320 ss         1 JZY       0.080400
      8 C8           1.2800    -0.8130    -1.3240 cc         1 JZY      -0.049600
      9 C9           0.5760     0.3010    -1.0160 cd         1 JZY      -0.279800
     10 N10         -2.8380    -3.0320    -0.4350 nh         1 JZY      -0.774300
     11 C11         -4.1510    -3.3410     0.1110 c6         1 JZY       0.178800
     12 C12         -4.1460    -4.7600     0.6490 c6         1 JZY       0.143100
     13 O13         -3.7590    -5.7020    -0.3260 os         1 JZY      -0.443000
     14 C14         -2.4780    -5.4070    -0.8310 c6         1 JZY       0.143100
     15 C15         -2.4270    -4.0140    -1.4280 c6         1 JZY       0.178800
     16 C16         -3.8950     1.4150     0.4930 cp         1 JZY      -0.329500
     17 C17         -5.2350     1.0290     0.4420 ca         1 JZY       0.189900
     18 N18         -6.2460     1.7940     0.7950 nb         1 JZY      -0.260000
     19 C19         -5.9220     3.0170     1.2340 ca         1 JZY       0.401900
     20 N20         -4.6770     3.4890     1.3480 nb         1 JZY      -0.279000
     21 C21         -3.6650     2.7140     0.9850 ca         1 JZY       0.224300
     22 C22         -2.3090     3.3190     1.1680 c3         1 JZY      -0.148400
     23 N23         -6.9220     3.8240     1.6090 nv         1 JZY      -1.069900
     24 C24          2.7180    -0.9010    -1.7380 c3         1 JZY       0.239000
     25 N25          3.5010     0.1130    -1.0700 n3         1 JZY      -0.729600
     26 C26          4.7430     0.4170    -1.7520 c6         1 JZY       0.167800
     27 C27          5.4170     1.6030    -1.0890 c6         1 JZY       0.192800
     28 N28          5.6480     1.2880     0.3210 n3         1 JZY      -0.724500
     29 C29          4.4140     0.9460     1.0290 c6         1 JZY       0.192800
     30 C30          3.7520    -0.2170     0.3190 c6         1 JZY       0.167800
     31 S31          6.7620     2.2010     1.1310 s6         1 JZY       1.196100
     32 O32          6.8980     1.6280     2.4620 o          1 JZY      -0.530500
     33 O33          7.9400     2.2960     0.2810 o          1 JZY      -0.530500
     34 C34          6.0730     3.8330     1.3000 c3         1 JZY      -0.382100
     35 H9           1.0020     1.2940    -0.9940 ha         1 JZY       0.228000
     36 H11         -4.3860    -2.6560     0.9220 h1         1 JZY       0.061950
     37 H11A        -4.9250    -3.2210    -0.6570 h1         1 JZY       0.061950
     38 H12         -3.4770    -4.8100     1.5200 h1         1 JZY       0.056200
     39 H12A        -5.1500    -5.0260     0.9810 h1         1 JZY       0.056200
     40 H14         -1.7170    -5.4960    -0.0430 h1         1 JZY       0.056200
     41 H14A        -2.2520    -6.1420    -1.6040 h1         1 JZY       0.056200
     42 H15         -3.0980    -3.9580    -2.2940 h1         1 JZY       0.061950
     43 H15A        -1.4230    -3.8290    -1.7990 h1         1 JZY       0.061950
     44 H17         -5.4860     0.0380     0.0820 h4         1 JZY       0.037100
     45 H22         -1.8500     3.5450     0.2060 hc         1 JZY       0.061700
     46 H22A        -2.3990     4.2390     1.7400 hc         1 JZY       0.061700
     47 H22B        -1.6290     2.6390     1.6780 hc         1 JZY       0.061700
     48 HN23        -7.8770     3.5430     1.4720 hn         1 JZY       0.504500
     49 HN2A        -6.7340     4.7770     1.8650 hn         1 JZY       0.504500
     50 H24          3.1020    -1.9190    -1.5670 h1         1 JZY       0.049200
     51 H24A         2.7760    -0.7340    -2.8170 h1         1 JZY       0.049200
     52 H26          5.4380    -0.4370    -1.7600 h1         1 JZY       0.048700
     53 H26A         4.5290     0.6790    -2.7900 h1         1 JZY       0.048700
     54 H27          6.3640     1.8030    -1.5850 h1         1 JZY       0.061700
     55 H27A         4.7770     2.4880    -1.1940 h1         1 JZY       0.061700
     56 H29          4.6430     0.6560     2.0520 h1         1 JZY       0.061700
     57 H29A         3.7220     1.7960     1.0540 h1         1 JZY       0.061700
     58 H30          2.8060    -0.4300     0.8200 h1         1 JZY       0.048700
     59 H30A         4.3870    -1.1130     0.4130 h1         1 JZY       0.048700
     60 H34          5.1630     3.7880     1.8950 h1         1 JZY       0.101033
     61 H34A         6.8110     4.4540     1.8060 h1         1 JZY       0.101033
     62 H34B         5.8600     4.2480     0.3170 h1         1 JZY       0.101033
@<TRIPOS>BOND
     1     1     2 ar  
     2     1     6 ar  
     3     1    10 1   
     4     2     3 ar  
     5     3     4 ar  
     6     3    16 1   
     7     4     5 ar  
     8     5     6 ar  
     9     5     9 1   
    10     6     7 1   
    11     7     8 1   
    12     8     9 2   
    13     8    24 1   
    14     9    35 1   
    15    10    11 1   
    16    10    15 1   
    17    11    12 1   
    18    11    36 1   
    19    11    37 1   
    20    12    13 1   
    21    12    38 1   
    22    12    39 1   
    23    13    14 1   
    24    14    15 1   
    25    14    40 1   
    26    14    41 1   
    27    15    42 1   
    28    15    43 1   
    29    16    17 ar  
    30    16    21 ar  
    31    17    18 ar  
    32    17    44 1   
    33    18    19 ar  
    34    19    20 ar  
    35    19    23 1   
    36    20    21 ar  
    37    21    22 1   
    38    22    45 1   
    39    22    46 1   
    40    22    47 1   
    41    23    48 1   
    42    23    49 1   
    43    24    25 1   
    44    24    50 1   
    45    24    51 1   
    46    25    26 1   
    47    25    30 1   
    48    26    27 1   
    49    26    52 1   
    50    26    53 1   
    51    27    28 1   
    52    27    54 1   
    53    27    55 1   
    54    28    29 1   
    55    28    31 1   
    56    29    30 1   
    57    29    56 1   
    58    29    57 1   
    59    30    58 1   
    60    30    59 1   
    61    31    32 2   
    62    31    33 2   
    63    31    34 1   
    64    34    60 1   
    65    34    61 1   
    66    34    62 1   
@<TRIPOS>SUBSTRUCTURE
     1 JZY         1 TEMP              0 ****  ****    0 ROOT
