@<TRIPOS>MOLECULE
JZZ
   46    48     1     0     0
SMALL
No Charge or Current Charge


@<TRIPOS>ATOM
      1 N2           2.3330     0.4960     0.4720 n          1 JZZ      -0.263500
      2 C3           1.8270     1.4310    -0.4080 cc         1 JZZ       0.589200
      3 O3           1.2260     1.0530    -1.5790 os         1 JZZ      -0.401600
      4 N4           2.1020     2.6770    -0.1030 n2         1 JZZ      -0.577300
      5 N5           2.8250     2.5280     1.0760 n          1 JZZ      -0.162800
      6 C6           2.9880     1.1930     1.4500 c          1 JZZ       0.581000
      7 O6           3.5610     0.7520     2.4390 o          1 JZZ      -0.545000
      8 C7           3.3740     3.6350     1.8810 c3         1 JZZ       0.130300
      9 C27          0.6370     2.0430    -2.4400 c3         1 JZZ       0.161900
     10 CAA         -4.5660     2.2520    -0.9990 c3         1 JZZ      -0.081433
     11 CAB         -1.5960    -2.8110    -0.4460 ca         1 JZZ      -0.087000
     12 CAC         -0.4190    -3.5690    -0.3560 ca         1 JZZ      -0.100000
     13 CAD          0.8070    -2.9440    -0.0560 ca         1 JZZ      -0.032000
     14 CAE          1.9650    -3.7320     0.0630 ca         1 JZZ      -0.088000
     15 CAF          3.1910    -3.1350     0.3770 ca         1 JZZ      -0.104000
     16 CAG         -6.0070     0.1950    -1.3550 c3         1 JZZ      -0.081433
     17 CAH         -4.9700     0.8710    -0.4230 c3         1 JZZ       0.037100
     18 CAI         -3.7710     0.0180    -0.3360 c1         1 JZZ      -0.101100
     19 CAK         -1.5570    -1.4280    -0.2130 ca         1 JZZ       0.045000
     20 CAL         -0.3360    -0.8010     0.0900 ca         1 JZZ      -0.072000
     21 CAM          0.8710    -1.5400     0.1360 ca         1 JZZ      -0.022000
     22 CAN          2.1250    -0.9300     0.4370 ca         1 JZZ       0.073600
     23 CAO          3.2700    -1.7460     0.5530 ca         1 JZZ      -0.083000
     24 CAP         -5.5710     1.0470     0.9940 c3         1 JZZ      -0.081433
     25 H7           3.1380     4.5950     1.4070 h1         1 JZZ       0.051367
     26 H7A          2.9350     3.6120     2.8870 h1         1 JZZ       0.051367
     27 H7B          4.4630     3.5300     1.9600 h1         1 JZZ       0.051367
     28 H27         -0.1500     2.6000    -1.9140 h1         1 JZZ       0.055367
     29 H27A         1.3930     2.7570    -2.7930 h1         1 JZZ       0.055367
     30 H27B         0.1860     1.5650    -3.3180 h1         1 JZZ       0.055367
     31 HAA         -5.4390     2.9120    -1.0760 hc         1 JZZ       0.039478
     32 HAAA        -3.8260     2.7470    -0.3570 hc         1 JZZ       0.039478
     33 HAAB        -4.1310     2.1510    -2.0010 hc         1 JZZ       0.039478
     34 HAB         -2.5390    -3.3020    -0.6790 ha         1 JZZ       0.121000
     35 HAC         -0.4620    -4.6440    -0.5150 ha         1 JZZ       0.116000
     36 HAE          1.9140    -4.8090    -0.0820 ha         1 JZZ       0.117000
     37 HAF          4.0870    -3.7460     0.4660 ha         1 JZZ       0.120000
     38 HAG         -5.5990     0.0550    -2.3640 hc         1 JZZ       0.039478
     39 HAGA        -6.3020    -0.7890    -0.9690 hc         1 JZZ       0.039478
     40 HAGB        -6.9120     0.8090    -1.4410 hc         1 JZZ       0.039478
     41 HAL         -0.3490     0.2610     0.3100 ha         1 JZZ       0.126000
     42 HAO          4.2390    -1.2960     0.7530 ha         1 JZZ       0.127000
     43 HAP         -6.4670     1.6800     0.9610 hc         1 JZZ       0.039478
     44 HAPA        -5.8590     0.0800     1.4240 hc         1 JZZ       0.039478
     45 HAPB        -4.8500     1.5200     1.6730 hc         1 JZZ       0.039478
     46 CAJ         -2.7600    -0.6520    -0.2770 cg         1 JZZ      -0.136000
@<TRIPOS>BOND
     1     1     2 1   
     2     1     6 1   
     3     1    22 1   
     4     2     3 1   
     5     2     4 2   
     6     3     9 1   
     7     4     5 1   
     8     5     6 1   
     9     5     8 1   
    10     6     7 2   
    11     8    25 1   
    12     8    26 1   
    13     8    27 1   
    14     9    28 1   
    15     9    29 1   
    16     9    30 1   
    17    10    17 1   
    18    10    31 1   
    19    10    32 1   
    20    10    33 1   
    21    11    12 ar  
    22    11    19 ar  
    23    11    34 1   
    24    12    13 ar  
    25    12    35 1   
    26    13    14 ar  
    27    13    21 ar  
    28    14    15 ar  
    29    14    36 1   
    30    15    23 ar  
    31    15    37 1   
    32    16    17 1   
    33    16    38 1   
    34    16    39 1   
    35    16    40 1   
    36    17    18 1   
    37    17    24 1   
    38    18    46 3   
    39    19    20 ar  
    40    19    46 1   
    41    20    21 ar  
    42    20    41 1   
    43    21    22 ar  
    44    22    23 ar  
    45    23    42 1   
    46    24    43 1   
    47    24    44 1   
    48    24    45 1   
@<TRIPOS>SUBSTRUCTURE
     1 JZZ         1 TEMP              0 ****  ****    0 ROOT
