@<TRIPOS>MOLECULE
JZZ
   46    48     1     0     0
SMALL
abcg2


@<TRIPOS>ATOM
      1 N2           2.2080     0.4700     0.3380 n          1 JZZ      -0.263500
      2 C3           2.1630     1.4150    -0.6460 cc         1 JZZ       0.589200
      3 O3           1.9870     1.0360    -1.8870 os         1 JZZ      -0.401600
      4 N4           2.3060     2.6080    -0.1920 n2         1 JZZ      -0.577300
      5 N5           2.4560     2.4380     1.1640 n          1 JZZ      -0.162800
      6 C6           2.4080     1.1430     1.5430 c          1 JZZ       0.581000
      7 O6           2.5090     0.6450     2.6490 o          1 JZZ      -0.545000
      8 C7           2.6580     3.5800     2.0110 c3         1 JZZ       0.130300
      9 C27          1.9540     2.0740    -2.8690 c3         1 JZZ       0.161900
     10 CAA         -4.7540     2.1540    -1.0030 c3         1 JZZ      -0.081433
     11 CAB         -1.6620    -2.7800    -0.3020 ca         1 JZZ      -0.087000
     12 CAC         -0.5240    -3.5300    -0.2830 ca         1 JZZ      -0.100000
     13 CAD          0.7450    -2.9270    -0.1150 ca         1 JZZ      -0.032000
     14 CAE          1.9300    -3.6950    -0.0820 ca         1 JZZ      -0.088000
     15 CAF          3.1470    -3.0950     0.0860 ca         1 JZZ      -0.104000
     16 CAG         -6.1430     0.0660    -0.9000 c3         1 JZZ      -0.081433
     17 CAH         -5.0270     0.8650    -0.2170 c3         1 JZZ       0.037100
     18 CAI         -3.8050     0.0580    -0.1850 c1         1 JZZ      -0.101100
     19 CAK         -1.5950    -1.3700    -0.1480 ca         1 JZZ       0.045000
     20 CAL         -0.3710    -0.7600     0.0140 ca         1 JZZ      -0.072000
     21 CAM          0.8180    -1.5180     0.0310 ca         1 JZZ      -0.022000
     22 CAN          2.1010    -0.9310     0.1910 ca         1 JZZ       0.073600
     23 CAO          3.2330    -1.6960     0.2210 ca         1 JZZ      -0.083000
     24 CAP         -5.4400     1.2130     1.2200 c3         1 JZZ      -0.081433
     25 H7           1.8200     4.2700     1.9290 h1         1 JZZ       0.051367
     26 H7A          2.7330     3.2400     3.0400 h1         1 JZZ       0.051367
     27 H7B          3.5780     4.1000     1.7450 h1         1 JZZ       0.051367
     28 H27          1.1170     2.7510    -2.6940 h1         1 JZZ       0.055367
     29 H27A         2.8850     2.6400    -2.8710 h1         1 JZZ       0.055367
     30 H27B         1.8270     1.5770    -3.8250 h1         1 JZZ       0.055367
     31 HAA         -5.6520     2.7750    -1.0140 hc         1 JZZ       0.039478
     32 HAAA        -3.9490     2.7320    -0.5480 hc         1 JZZ       0.039478
     33 HAAB        -4.4780     1.9400    -2.0350 hc         1 JZZ       0.039478
     34 HAB         -2.6260    -3.2520    -0.4330 ha         1 JZZ       0.121000
     35 HAC         -0.5810    -4.6060    -0.3940 ha         1 JZZ       0.116000
     36 HAE          1.8590    -4.7700    -0.1900 ha         1 JZZ       0.117000
     37 HAF          4.0510    -3.6890     0.1130 ha         1 JZZ       0.120000
     38 HAG         -5.8650    -0.2100    -1.9170 hc         1 JZZ       0.039478
     39 HAGA        -6.3720    -0.8470    -0.3490 hc         1 JZZ       0.039478
     40 HAGB        -7.0520     0.6680    -0.9490 hc         1 JZZ       0.039478
     41 HAL         -0.3330     0.3140     0.1410 ha         1 JZZ       0.126000
     42 HAO          4.1980    -1.2230     0.3450 ha         1 JZZ       0.127000
     43 HAP         -6.3440     1.8240     1.2060 hc         1 JZZ       0.039478
     44 HAPA        -5.6490     0.3140     1.8000 hc         1 JZZ       0.039478
     45 HAPB        -4.6590     1.7760     1.7310 hc         1 JZZ       0.039478
     46 CAJ         -2.7920    -0.5960    -0.1640 cg         1 JZZ      -0.136000
@<TRIPOS>BOND
     1     1     2 1   
     2     1     6 1   
     3     1    22 1   
     4     2     3 1   
     5     2     4 2   
     6     3     9 1   
     7     4     5 1   
     8     5     6 1   
     9     5     8 1   
    10     6     7 2   
    11     8    25 1   
    12     8    26 1   
    13     8    27 1   
    14     9    28 1   
    15     9    29 1   
    16     9    30 1   
    17    10    17 1   
    18    10    31 1   
    19    10    32 1   
    20    10    33 1   
    21    11    12 ar  
    22    11    19 ar  
    23    11    34 1   
    24    12    13 ar  
    25    12    35 1   
    26    13    14 ar  
    27    13    21 ar  
    28    14    15 ar  
    29    14    36 1   
    30    15    23 ar  
    31    15    37 1   
    32    16    17 1   
    33    16    38 1   
    34    16    39 1   
    35    16    40 1   
    36    17    18 1   
    37    17    24 1   
    38    18    46 3   
    39    19    20 ar  
    40    19    46 1   
    41    20    21 ar  
    42    20    41 1   
    43    21    22 ar  
    44    22    23 ar  
    45    23    42 1   
    46    24    43 1   
    47    24    44 1   
    48    24    45 1   
@<TRIPOS>SUBSTRUCTURE
     1 JZZ         1 TEMP              0 ****  ****    0 ROOT
