@<TRIPOS>MOLECULE
Y00
   45    46     1     0     0
SMALL
abcg2


@<TRIPOS>ATOM
      1 O3           8.3330     0.7380     0.2900 oh         1 Y00      -0.536100
      2 C16          6.9950     0.6170     0.1460 ca         1 Y00       0.134100
      3 C15          6.5060     0.2180    -1.0960 ca         1 Y00      -0.174000
      4 C14          5.1410     0.0850    -1.2890 ca         1 Y00      -0.070500
      5 C17          6.0990     0.8770     1.1780 ca         1 Y00      -0.174000
      6 C18          4.7340     0.7370     0.9640 ca         1 Y00      -0.070500
      7 C13          4.2250     0.3410    -0.2690 ca         1 Y00      -0.114300
      8 C12          2.7490     0.1510    -0.4860 c3         1 Y00      -0.020100
      9 C11          2.3260    -1.3100    -0.3400 c3         1 Y00      -0.065400
     10 C9           0.8440    -1.5480    -0.6250 c3         1 Y00       0.176500
     11 C10          0.5280    -3.0450    -0.6100 c3         1 Y00      -0.127100
     12 N1           0.0350    -0.7630     0.2940 n7         1 Y00      -0.877400
     13 C8          -1.3620    -0.6350    -0.0620 c3         1 Y00       0.167800
     14 C1          -2.0770     0.3090     0.9030 c3         1 Y00      -0.032100
     15 C2          -3.5280     0.4840     0.5550 ca         1 Y00      -0.072300
     16 C7          -4.4660    -0.4690     0.9530 ca         1 Y00      -0.121000
     17 C6          -5.8050    -0.3480     0.6180 ca         1 Y00       0.122100
     18 O1          -6.6730    -1.2970     1.0330 oh         1 Y00      -0.536100
     19 C5          -6.2300     0.7520    -0.1380 ca         1 Y00       0.041100
     20 O2          -7.5540     0.8090    -0.4220 oh         1 Y00      -0.558100
     21 C4          -5.3050     1.7010    -0.5390 ca         1 Y00      -0.158000
     22 C3          -3.9630     1.5670    -0.1960 ca         1 Y00      -0.106000
     23 H3           8.5490     1.0190     1.1860 ho         1 Y00       0.463000
     24 H15          7.1960     0.0180    -1.9060 ha         1 Y00       0.118500
     25 H17          6.4620     1.1930     2.1500 ha         1 Y00       0.118500
     26 H14          4.7800    -0.2250    -2.2640 ha         1 Y00       0.112000
     27 H18          4.0530     0.9460     1.7800 ha         1 Y00       0.112000
     28 H121         2.1830     0.7610     0.2190 hc         1 Y00       0.053700
     29 H122         2.4770     0.5010    -1.4870 hc         1 Y00       0.053700
     30 H111         2.9170    -1.9270    -1.0230 hc         1 Y00       0.041200
     31 H112         2.5630    -1.6630     0.6700 hc         1 Y00       0.041200
     32 H9           0.6340    -1.1640    -1.6310 h1         1 Y00       0.054700
     33 H101        -0.5230    -3.2380    -0.8300 hc         1 Y00       0.037700
     34 H102         1.1220    -3.5810    -1.3510 hc         1 Y00       0.037700
     35 H103         0.7500    -3.4750     0.3700 hc         1 Y00       0.037700
     36 H1           0.1110    -1.1570     1.2270 hn         1 Y00       0.408000
     37 H81C        -1.4200    -0.2230    -1.0740 h1         1 Y00       0.032200
     38 H82C        -1.9080    -1.5910    -0.0910 h1         1 Y00       0.032200
     39 H11C        -1.9830    -0.0810     1.9210 hc         1 Y00       0.053200
     40 H12C        -1.5670     1.2760     0.8900 hc         1 Y00       0.053200
     41 H7          -4.1540    -1.3260     1.5400 ha         1 Y00       0.129000
     42 HA          -3.2560     2.3220    -0.5170 ha         1 Y00       0.117000
     43 HB          -7.5670    -1.0860     0.7410 ho         1 Y00       0.481000
     44 H2          -7.7540     1.5850    -0.9560 ho         1 Y00       0.474000
     45 H4          -5.6320     2.5580    -1.1180 ha         1 Y00       0.113000
@<TRIPOS>BOND
     1     1     2 1   
     2     1    23 1   
     3     2     3 ar  
     4     2     5 ar  
     5     3     4 ar  
     6     3    24 1   
     7     4     7 ar  
     8     4    26 1   
     9     5     6 ar  
    10     5    25 1   
    11     6     7 ar  
    12     6    27 1   
    13     7     8 1   
    14     8     9 1   
    15     8    28 1   
    16     8    29 1   
    17     9    10 1   
    18     9    30 1   
    19     9    31 1   
    20    10    11 1   
    21    10    12 1   
    22    10    32 1   
    23    11    33 1   
    24    11    34 1   
    25    11    35 1   
    26    12    13 1   
    27    12    36 1   
    28    13    14 1   
    29    13    37 1   
    30    13    38 1   
    31    14    15 1   
    32    14    39 1   
    33    14    40 1   
    34    15    16 ar  
    35    15    22 ar  
    36    16    17 ar  
    37    16    41 1   
    38    17    18 1   
    39    17    19 ar  
    40    18    43 1   
    41    19    20 1   
    42    19    21 ar  
    43    20    44 1   
    44    21    22 ar  
    45    21    45 1   
    46    22    42 1   
@<TRIPOS>SUBSTRUCTURE
     1 Y00         1 TEMP              0 ****  ****    0 ROOT
