@<TRIPOS>MOLECULE
Y00
   45    46     1     0     0
SMALL
No Charge or Current Charge


@<TRIPOS>ATOM
      1 O3           8.3910     0.8630     0.3580 oh         1 Y00      -0.536100
      2 C16          7.0560     0.6940     0.1470 ca         1 Y00       0.134100
      3 C15          6.5840     0.4470    -1.1510 ca         1 Y00      -0.174000
      4 C14          5.2070     0.2720    -1.3790 ca         1 Y00      -0.070500
      5 C17          6.1540     0.7660     1.2210 ca         1 Y00      -0.174000
      6 C18          4.7770     0.5900     0.9950 ca         1 Y00      -0.070500
      7 C13          4.2970     0.3440    -0.3070 ca         1 Y00      -0.114300
      8 C12          2.8050     0.1500    -0.5490 c3         1 Y00      -0.020100
      9 C11          2.3720    -1.3220    -0.3490 c3         1 Y00      -0.065400
     10 C9           0.8790    -1.5930    -0.6630 c3         1 Y00       0.176500
     11 C10          0.5470    -3.0990    -0.5760 c3         1 Y00      -0.127100
     12 N1           0.0260    -0.8360     0.2750 n7         1 Y00      -0.877400
     13 C8          -1.3970    -0.6830    -0.0940 c3         1 Y00       0.167800
     14 C1          -2.1180     0.2370     0.9100 c3         1 Y00      -0.032100
     15 C2          -3.5880     0.4260     0.5570 ca         1 Y00      -0.072300
     16 C7          -4.5640    -0.4410     1.0890 ca         1 Y00      -0.121000
     17 C6          -5.9170    -0.2670     0.7570 ca         1 Y00       0.122100
     18 O1          -6.8640    -1.1040     1.2700 oh         1 Y00      -0.536100
     19 C5          -6.3090     0.7730    -0.1100 ca         1 Y00       0.041100
     20 O2          -7.6300     0.9390    -0.4310 oh         1 Y00      -0.558100
     21 C4          -5.3390     1.6380    -0.6440 ca         1 Y00      -0.158000
     22 C3          -3.9830     1.4630    -0.3110 ca         1 Y00      -0.106000
     23 H3           8.5360     1.0240     1.3150 ho         1 Y00       0.463000
     24 H15          7.2830     0.3910    -1.9810 ha         1 Y00       0.118500
     25 H17          6.5110     0.9550     2.2300 ha         1 Y00       0.118500
     26 H14          4.8500     0.0780    -2.3880 ha         1 Y00       0.112000
     27 H18          4.0830     0.6450     1.8310 ha         1 Y00       0.112000
     28 H121         2.2310     0.7960     0.1260 hc         1 Y00       0.053700
     29 H122         2.5440     0.4650    -1.5670 hc         1 Y00       0.053700
     30 H111         2.9880    -1.9530    -1.0000 hc         1 Y00       0.041200
     31 H112         2.5920    -1.6270     0.6820 hc         1 Y00       0.041200
     32 H9           0.6930    -1.2610    -1.6950 h1         1 Y00       0.054700
     33 H101        -0.4860    -3.2970    -0.8830 hc         1 Y00       0.037700
     34 H102         1.2040    -3.6740    -1.2400 hc         1 Y00       0.037700
     35 H103         0.6840    -3.4750     0.4460 hc         1 Y00       0.037700
     36 H1           0.0850    -1.2790     1.1980 hn         1 Y00       0.408000
     37 H81C        -1.4850    -0.2470    -1.0990 h1         1 Y00       0.032200
     38 H82C        -1.9040    -1.6570    -0.1060 h1         1 Y00       0.032200
     39 H11C        -2.0240    -0.1850     1.9180 hc         1 Y00       0.053200
     40 H12C        -1.6100     1.2090     0.9340 hc         1 Y00       0.053200
     41 H7          -4.2740    -1.2480     1.7570 ha         1 Y00       0.129000
     42 HA          -3.2370     2.1360    -0.7300 ha         1 Y00       0.117000
     43 HB          -7.7220    -0.7920     0.9030 ho         1 Y00       0.481000
     44 H2          -7.7150     1.7060    -1.0410 ho         1 Y00       0.474000
     45 H4          -5.6260     2.4450    -1.3150 ha         1 Y00       0.113000
@<TRIPOS>BOND
     1     1     2 1   
     2     1    23 1   
     3     2     3 ar  
     4     2     5 ar  
     5     3     4 ar  
     6     3    24 1   
     7     4     7 ar  
     8     4    26 1   
     9     5     6 ar  
    10     5    25 1   
    11     6     7 ar  
    12     6    27 1   
    13     7     8 1   
    14     8     9 1   
    15     8    28 1   
    16     8    29 1   
    17     9    10 1   
    18     9    30 1   
    19     9    31 1   
    20    10    11 1   
    21    10    12 1   
    22    10    32 1   
    23    11    33 1   
    24    11    34 1   
    25    11    35 1   
    26    12    13 1   
    27    12    36 1   
    28    13    14 1   
    29    13    37 1   
    30    13    38 1   
    31    14    15 1   
    32    14    39 1   
    33    14    40 1   
    34    15    16 ar  
    35    15    22 ar  
    36    16    17 ar  
    37    16    41 1   
    38    17    18 1   
    39    17    19 ar  
    40    18    43 1   
    41    19    20 1   
    42    19    21 ar  
    43    20    44 1   
    44    21    22 ar  
    45    21    45 1   
    46    22    42 1   
@<TRIPOS>SUBSTRUCTURE
     1 Y00         1 TEMP              0 ****  ****    0 ROOT
