@<TRIPOS>MOLECULE
Y01
   84    87     1     0     0
SMALL
bcc


@<TRIPOS>ATOM
      1 CAA        -10.8890    -0.2510    -1.2220 c3         1 Y01      -0.086600
      2 CBA        -10.6380    -0.1130     0.2770 c3         1 Y01      -0.059700
      3 CAB        -11.6630    -0.9250     1.0640 c3         1 Y01      -0.086600
      4 CAN         -9.2200    -0.5350     0.6660 c3         1 Y01      -0.073400
      5 CAJ         -8.1030     0.2890     0.0370 c3         1 Y01      -0.074400
      6 CAO         -6.7230    -0.1720     0.4980 c3         1 Y01      -0.077400
      7 CBB         -5.5410     0.5480    -0.1670 c3         1 Y01      -0.046700
      8 CAC         -5.5140     2.0170     0.2470 c3         1 Y01      -0.086100
      9 CBE         -4.2340    -0.1950     0.1460 c5         1 Y01      -0.054700
     10 CAP         -4.2490    -1.6500    -0.3970 c5         1 Y01      -0.076400
     11 CAQ         -2.7960    -2.0130    -0.7580 c5         1 Y01      -0.071400
     12 CBG         -1.9880    -0.8530    -0.1910 c5         1 Y01      -0.064700
     13 CBI         -2.8940     0.3730    -0.3860 c5         1 Y01      -0.036000
     14 CAE         -3.0310     0.7580    -1.8630 c3         1 Y01      -0.077100
     15 CAU         -2.2680     1.5080     0.4270 c6         1 Y01      -0.061400
     16 CAS         -0.8150     1.7620     0.0170 c6         1 Y01      -0.071400
     17 CBF          0.0760     0.5160     0.0890 c6         1 Y01      -0.046700
     18 CBD         -0.5510    -0.6730    -0.6520 c6         1 Y01      -0.042700
     19 CAK          0.2540    -1.9390    -0.3810 c6         1 Y01      -0.035200
     20 CAI          1.7280    -1.7110    -0.4080 c2         1 Y01      -0.176200
     21 CAZ          2.3150    -0.5150    -0.4140 c2         1 Y01      -0.100400
     22 CAV          3.8160    -0.4120    -0.5020 c6         1 Y01      -0.062200
     23 CBH          1.5380     0.7880    -0.3480 c6         1 Y01       0.002200
     24 CAD          1.6060     1.4670    -1.7250 c3         1 Y01      -0.078100
     25 CAT          2.2040     1.6950     0.7100 c6         1 Y01      -0.066400
     26 CAR          3.7140     1.8430     0.5580 c6         1 Y01      -0.077400
     27 CBC          4.3730     0.4800     0.6000 c6         1 Y01       0.155100
     28 OAW          5.7850     0.6780     0.4280 os         1 Y01      -0.438900
     29 CAY          6.6340    -0.2410     0.8850 c          1 Y01       0.631100
     30 OAG          6.2830    -1.2430     1.4590 o          1 Y01      -0.561000
     31 CAM          8.0590     0.1370     0.5830 c3         1 Y01      -0.107400
     32 CAL          9.0830    -0.7880     1.2130 c3         1 Y01      -0.206400
     33 CAX         10.5480    -0.4270     0.9040 c          1 Y01       0.928600
     34 OAH         11.4050    -1.2040     1.3730 o          1 Y01      -0.843300
     35 OAF         10.7670     0.5950     0.2260 o          1 Y01      -0.843300
     36 HAA1       -10.2420     0.3980    -1.8120 hc         1 Y01       0.030700
     37 HAA2       -10.7160    -1.2790    -1.5520 hc         1 Y01       0.030700
     38 HAA3       -11.9200     0.0070    -1.4720 hc         1 Y01       0.030700
     39 HBA        -10.7630     0.9430     0.5480 hc         1 Y01       0.042700
     40 HAB1       -11.5660    -1.9910     0.8440 hc         1 Y01       0.030700
     41 HAB2       -11.5310    -0.7970     2.1400 hc         1 Y01       0.030700
     42 HAB3       -12.6840    -0.6290     0.8170 hc         1 Y01       0.030700
     43 HAN1        -9.1250    -0.4820     1.7560 hc         1 Y01       0.036700
     44 HAN2        -9.0840    -1.5920     0.4040 hc         1 Y01       0.036700
     45 HAJ1        -8.1500     0.2150    -1.0540 hc         1 Y01       0.037700
     46 HAJ2        -8.2590     1.3450     0.2780 hc         1 Y01       0.037700
     47 HAO1        -6.6420    -0.0600     1.5860 hc         1 Y01       0.037700
     48 HAO2        -6.6530    -1.2460     0.3040 hc         1 Y01       0.037700
     49 HBB         -5.6980     0.5010    -1.2530 hc         1 Y01       0.044700
     50 HAC1        -4.7830     2.5900    -0.3220 hc         1 Y01       0.032033
     51 HAC2        -6.4810     2.4950     0.0840 hc         1 Y01       0.032033
     52 HAC3        -5.2660     2.1230     1.3050 hc         1 Y01       0.032033
     53 HBE         -4.1380    -0.2350     1.2400 hc         1 Y01       0.044700
     54 HAP1        -4.6580    -2.3400     0.3410 hc         1 Y01       0.037200
     55 HAP2        -4.9010    -1.7150    -1.2720 hc         1 Y01       0.037200
     56 HAQ1        -2.4940    -2.9750    -0.3400 hc         1 Y01       0.041700
     57 HAQ2        -2.6600    -2.0880    -1.8410 hc         1 Y01       0.041700
     58 HBG         -1.9320    -1.0110     0.8990 hc         1 Y01       0.043700
     59 HBD         -0.5340    -0.4780    -1.7320 hc         1 Y01       0.052700
     60 HAE1        -3.7050     1.6070    -1.9830 hc         1 Y01       0.031700
     61 HAE2        -2.0800     1.0430    -2.3140 hc         1 Y01       0.031700
     62 HAE3        -3.4350    -0.0570    -2.4650 hc         1 Y01       0.031700
     63 HAU1        -2.8260     2.4410     0.3280 hc         1 Y01       0.037200
     64 HAU2        -2.3100     1.2400     1.4890 hc         1 Y01       0.037200
     65 HAS1        -0.8050     2.1670    -0.9970 hc         1 Y01       0.039200
     66 HAS2        -0.4030     2.5480     0.6540 hc         1 Y01       0.039200
     67 HBF          0.1250     0.2170     1.1470 hc         1 Y01       0.046700
     68 HAK1        -0.0290    -2.3540     0.5970 hc         1 Y01       0.042200
     69 HAK2        -0.0030    -2.7170    -1.1070 hc         1 Y01       0.042200
     70 HAI          2.3570    -2.5970    -0.4320 ha         1 Y01       0.127000
     71 HAV1         4.2540    -1.4110    -0.4480 hc         1 Y01       0.061700
     72 HAV2         4.1100     0.0110    -1.4690 hc         1 Y01       0.061700
     73 HBC          4.1860     0.0190     1.5750 h1         1 Y01       0.061700
     74 HAD1         1.2150     2.4850    -1.6890 hc         1 Y01       0.033367
     75 HAD2         2.6310     1.5370    -2.0910 hc         1 Y01       0.033367
     76 HAD3         1.0360     0.9120    -2.4710 hc         1 Y01       0.033367
     77 HAT1         1.7510     2.6880     0.6800 hc         1 Y01       0.038200
     78 HAT2         1.9890     1.2890     1.7050 hc         1 Y01       0.038200
     79 HAR1         3.9600     2.3490    -0.3810 hc         1 Y01       0.052200
     80 HAR2         4.0990     2.4700     1.3660 hc         1 Y01       0.052200
     81 HAM1         8.1700     0.1510    -0.5060 hc         1 Y01       0.072700
     82 HAM2         8.2180     1.1700     0.8990 hc         1 Y01       0.072700
     83 HAL1         8.9590    -0.7970     2.3000 hc         1 Y01       0.032700
     84 HAL2         8.9090    -1.8190     0.8950 hc         1 Y01       0.032700
@<TRIPOS>BOND
     1     1     2 1   
     2     1    36 1   
     3     1    37 1   
     4     1    38 1   
     5     2     3 1   
     6     2     4 1   
     7     2    39 1   
     8     3    40 1   
     9     3    41 1   
    10     3    42 1   
    11     4     5 1   
    12     4    43 1   
    13     4    44 1   
    14     5     6 1   
    15     5    45 1   
    16     5    46 1   
    17     6     7 1   
    18     6    47 1   
    19     6    48 1   
    20     7     8 1   
    21     7     9 1   
    22     7    49 1   
    23     8    50 1   
    24     8    51 1   
    25     8    52 1   
    26     9    10 1   
    27     9    13 1   
    28     9    53 1   
    29    10    11 1   
    30    10    54 1   
    31    10    55 1   
    32    11    12 1   
    33    11    56 1   
    34    11    57 1   
    35    12    13 1   
    36    12    18 1   
    37    12    58 1   
    38    13    14 1   
    39    13    15 1   
    40    14    60 1   
    41    14    61 1   
    42    14    62 1   
    43    15    16 1   
    44    15    63 1   
    45    15    64 1   
    46    16    17 1   
    47    16    65 1   
    48    16    66 1   
    49    17    18 1   
    50    17    23 1   
    51    17    67 1   
    52    18    19 1   
    53    18    59 1   
    54    19    20 1   
    55    19    68 1   
    56    19    69 1   
    57    20    21 2   
    58    20    70 1   
    59    21    22 1   
    60    21    23 1   
    61    22    27 1   
    62    22    71 1   
    63    22    72 1   
    64    23    24 1   
    65    23    25 1   
    66    24    74 1   
    67    24    75 1   
    68    24    76 1   
    69    25    26 1   
    70    25    77 1   
    71    25    78 1   
    72    26    27 1   
    73    26    79 1   
    74    26    80 1   
    75    27    28 1   
    76    27    73 1   
    77    28    29 1   
    78    29    30 2   
    79    29    31 1   
    80    31    32 1   
    81    31    81 1   
    82    31    82 1   
    83    32    33 1   
    84    32    83 1   
    85    32    84 1   
    86    33    34 1   
    87    33    35 1   
@<TRIPOS>SUBSTRUCTURE
     1 Y01         1 TEMP              0 ****  ****    0 ROOT
