@<TRIPOS>MOLECULE
Y01
   84    87     1     0     0
SMALL
No Charge or Current Charge


@<TRIPOS>ATOM
      1 CAA        -11.1670     0.2700    -0.8490 c3         1 Y01      -0.086600
      2 CBA        -10.7610    -0.0080     0.6190 c3         1 Y01      -0.059700
      3 CAB        -11.7950    -0.9280     1.3070 c3         1 Y01      -0.086600
      4 CAN         -9.3260    -0.5890     0.7520 c3         1 Y01      -0.073400
      5 CAJ         -8.1980     0.3400     0.2420 c3         1 Y01      -0.074400
      6 CAO         -6.7830    -0.2390     0.5020 c3         1 Y01      -0.077400
      7 CBB         -5.5940     0.5460    -0.1410 c3         1 Y01      -0.046700
      8 CAC         -5.4890     1.9720     0.4590 c3         1 Y01      -0.086100
      9 CBE         -4.2360    -0.2840    -0.0060 c5         1 Y01      -0.054700
     10 CAP         -4.3030    -1.6770    -0.7410 c5         1 Y01      -0.076400
     11 CAQ         -2.8390    -2.0290    -1.1540 c5         1 Y01      -0.071400
     12 CBG         -2.0080    -0.9450    -0.4300 c5         1 Y01      -0.064700
     13 CBI         -2.8870     0.3350    -0.6100 c5         1 Y01      -0.036000
     14 CAE         -2.9950     0.8580    -2.1080 c3         1 Y01      -0.077100
     15 CAU         -2.2240     1.4520     0.2580 c6         1 Y01      -0.061400
     16 CAS         -0.7340     1.6920    -0.1190 c6         1 Y01      -0.071400
     17 CBF          0.1420     0.3910    -0.0540 c6         1 Y01      -0.046700
     18 CBD         -0.5160    -0.7840    -0.8510 c6         1 Y01      -0.042700
     19 CAK          0.2630    -2.1030    -0.6030 c6         1 Y01      -0.035200
     20 CAI          1.7700    -1.9250    -0.5940 c2         1 Y01      -0.226200
     21 CAZ          2.4020    -0.7390    -0.5280 c2         1 Y01      -0.100400
     22 CAV          3.9340    -0.6810    -0.5470 c6         1 Y01      -0.062200
     23 CBH          1.6570     0.6160    -0.4720 c6         1 Y01       0.002200
     24 CAD          1.7780     1.2520    -1.9020 c3         1 Y01      -0.078100
     25 CAT          2.3350     1.5540     0.5890 c6         1 Y01      -0.066400
     26 CAR          3.8760     1.6340     0.4690 c6         1 Y01      -0.077400
     27 CBC          4.5080     0.2310     0.5630 c6         1 Y01       0.178300
     28 OAW          5.9410     0.3480     0.4560 os         1 Y01      -0.462100
     29 CAY          6.7660    -0.6900     0.8040 c          1 Y01       0.582100
     30 OAG          6.3830    -1.7410     1.3010 o          1 Y01      -0.512000
     31 CAM          8.2430    -0.3390     0.5940 c3         1 Y01      -0.107400
     32 CAL          8.8880     0.2600     1.8750 c3         1 Y01      -0.206400
     33 CAX         10.3650     0.5980     1.6200 c          1 Y01       0.718000
     34 OAH         11.1960    -0.2750     1.8140 o          1 Y01      -0.738000
     35 OAF         10.6340     1.7040     1.1770 o          1 Y01      -0.738000
     36 HAA1       -10.5270     1.0360    -1.3000 hc         1 Y01       0.030700
     37 HAA2       -11.0950    -0.6420    -1.4530 hc         1 Y01       0.030700
     38 HAA3       -12.2000     0.6340    -0.9010 hc         1 Y01       0.030700
     39 HBA        -10.7810     0.9520     1.1520 hc         1 Y01       0.042700
     40 HAB1       -11.8280    -1.9110     0.8200 hc         1 Y01       0.030700
     41 HAB2       -11.5400    -1.0770     2.3630 hc         1 Y01       0.030700
     42 HAB3       -12.7980    -0.4880     1.2620 hc         1 Y01       0.030700
     43 HAN1        -9.1360    -0.8130     1.8090 hc         1 Y01       0.036700
     44 HAN2        -9.2740    -1.5460     0.2170 hc         1 Y01       0.036700
     45 HAJ1        -8.3170     0.5060    -0.8350 hc         1 Y01       0.037700
     46 HAJ2        -8.3050     1.3120     0.7360 hc         1 Y01       0.037700
     47 HAO1        -6.6210    -0.3160     1.5850 hc         1 Y01       0.037700
     48 HAO2        -6.7850    -1.2660     0.1200 hc         1 Y01       0.037700
     49 HBB         -5.8830     0.7000    -1.2040 hc         1 Y01       0.044700
     50 HAC1        -4.8680     2.6100    -0.1760 hc         1 Y01       0.032033
     51 HAC2        -6.4620     2.4700     0.5140 hc         1 Y01       0.032033
     52 HAC3        -5.0620     1.9450     1.4690 hc         1 Y01       0.032033
     53 HBE         -4.1070    -0.4540     1.0700 hc         1 Y01       0.044700
     54 HAP1        -4.7240    -2.4480    -0.0860 hc         1 Y01       0.037200
     55 HAP2        -4.9460    -1.6370    -1.6280 hc         1 Y01       0.037200
     56 HAQ1        -2.5590    -3.0410    -0.8380 hc         1 Y01       0.041700
     57 HAQ2        -2.7060    -1.9890    -2.2410 hc         1 Y01       0.041700
     58 HBG         -1.9540    -1.2070     0.6360 hc         1 Y01       0.043700
     59 HBD         -0.4770    -0.5640    -1.9240 hc         1 Y01       0.052700
     60 HAE1        -3.5390     1.8080    -2.1500 hc         1 Y01       0.031700
     61 HAE2        -2.0170     1.0230    -2.5720 hc         1 Y01       0.031700
     62 HAE3        -3.5390     0.1580    -2.7520 hc         1 Y01       0.031700
     63 HAU1        -2.7550     2.4040     0.1580 hc         1 Y01       0.037200
     64 HAU2        -2.2870     1.1780     1.3200 hc         1 Y01       0.037200
     65 HAS1        -0.6920     2.1430    -1.1170 hc         1 Y01       0.039200
     66 HAS2        -0.3320     2.4500     0.5650 hc         1 Y01       0.039200
     67 HBF          0.1440     0.0760     1.0000 hc         1 Y01       0.046700
     68 HAK1        -0.0320    -2.5440     0.3590 hc         1 Y01       0.042200
     69 HAK2        -0.0100    -2.8380    -1.3730 hc         1 Y01       0.042200
     70 HAI          2.3430    -2.8520    -0.6470 ha         1 Y01       0.177000
     71 HAV1         4.3480    -1.6920    -0.4460 hc         1 Y01       0.061700
     72 HAV2         4.2750    -0.3180    -1.5250 hc         1 Y01       0.061700
     73 HBC          4.2590    -0.1940     1.5480 h1         1 Y01       0.061700
     74 HAD1         1.3700     2.2670    -1.9370 hc         1 Y01       0.033367
     75 HAD2         2.8190     1.3340    -2.2300 hc         1 Y01       0.033367
     76 HAD3         1.2600     0.6560    -2.6610 hc         1 Y01       0.033367
     77 HAT1         1.9300     2.5710     0.5160 hc         1 Y01       0.038200
     78 HAT2         2.0900     1.2030     1.6010 hc         1 Y01       0.038200
     79 HAR1         4.1640     2.1170    -0.4740 hc         1 Y01       0.052200
     80 HAR2         4.2720     2.2680     1.2740 hc         1 Y01       0.052200
     81 HAM1         8.7870    -1.2470     0.3100 hc         1 Y01       0.072700
     82 HAM2         8.3180     0.4150    -0.1980 hc         1 Y01       0.072700
     83 HAL1         8.3200     1.1720     2.1010 hc         1 Y01       0.032700
     84 HAL2         8.8020    -0.5150     2.6460 hc         1 Y01       0.032700
@<TRIPOS>BOND
     1     1     2 1   
     2     1    36 1   
     3     1    37 1   
     4     1    38 1   
     5     2     3 1   
     6     2     4 1   
     7     2    39 1   
     8     3    40 1   
     9     3    41 1   
    10     3    42 1   
    11     4     5 1   
    12     4    43 1   
    13     4    44 1   
    14     5     6 1   
    15     5    45 1   
    16     5    46 1   
    17     6     7 1   
    18     6    47 1   
    19     6    48 1   
    20     7     8 1   
    21     7     9 1   
    22     7    49 1   
    23     8    50 1   
    24     8    51 1   
    25     8    52 1   
    26     9    10 1   
    27     9    13 1   
    28     9    53 1   
    29    10    11 1   
    30    10    54 1   
    31    10    55 1   
    32    11    12 1   
    33    11    56 1   
    34    11    57 1   
    35    12    13 1   
    36    12    18 1   
    37    12    58 1   
    38    13    14 1   
    39    13    15 1   
    40    14    60 1   
    41    14    61 1   
    42    14    62 1   
    43    15    16 1   
    44    15    63 1   
    45    15    64 1   
    46    16    17 1   
    47    16    65 1   
    48    16    66 1   
    49    17    18 1   
    50    17    23 1   
    51    17    67 1   
    52    18    19 1   
    53    18    59 1   
    54    19    20 1   
    55    19    68 1   
    56    19    69 1   
    57    20    21 2   
    58    20    70 1   
    59    21    22 1   
    60    21    23 1   
    61    22    27 1   
    62    22    71 1   
    63    22    72 1   
    64    23    24 1   
    65    23    25 1   
    66    24    74 1   
    67    24    75 1   
    68    24    76 1   
    69    25    26 1   
    70    25    77 1   
    71    25    78 1   
    72    26    27 1   
    73    26    79 1   
    74    26    80 1   
    75    27    28 1   
    76    27    73 1   
    77    28    29 1   
    78    29    30 2   
    79    29    31 1   
    80    31    32 1   
    81    31    81 1   
    82    31    82 1   
    83    32    33 1   
    84    32    83 1   
    85    32    84 1   
    86    33    34 1   
    87    33    35 1   
@<TRIPOS>SUBSTRUCTURE
     1 Y01         1 TEMP              0 ****  ****    0 ROOT
