@<TRIPOS>MOLECULE
Y02
   67    67     1     0     0
SMALL
No Charge or Current Charge


@<TRIPOS>ATOM
      1 N           -1.4400     2.4560     1.0020 ns         1 Y02      -0.503900
      2 O1           2.3790    -2.3110     0.0440 oh         1 Y02      -0.695000
      3 O2           0.3460    -0.1270     1.0270 oh         1 Y02      -0.700000
      4 O3           2.8430    -0.0240     1.6910 oh         1 Y02      -0.689000
      5 O4          -1.0200     2.8000    -1.2060 o          1 Y02      -0.584100
      6 O5           1.7820     2.7750    -0.7350 os         1 Y02      -0.437000
      7 O6          -3.7150     0.5850     0.7070 os         1 Y02      -0.381100
      8 C01          6.7640    -2.1180     0.5420 c3         1 Y02      -0.018800
      9 C04          3.0280    -1.1610    -0.5020 c3         1 Y02       0.178500
     10 C05          2.6050     0.1350     0.2660 c3         1 Y02       0.098300
     11 C06          1.1170     0.5660     0.0370 c3         1 Y02       0.194300
     12 C07          0.8780     2.0960     0.1830 c3         1 Y02       0.058300
     13 C08          7.4560    -0.7350     0.4390 c3         1 Y02      -0.082433
     14 C09          7.1950    -2.8020     1.8650 c3         1 Y02      -0.082433
     15 C10          7.1920    -3.0110    -0.6520 c3         1 Y02      -0.082433
     16 C11         -0.6130     2.4480    -0.1040 c          1 Y02       0.581100
     17 C19         -2.8620     2.8430     0.9940 c3         1 Y02       0.099000
     18 C20         -3.7780     1.9140     0.1620 c3         1 Y02       0.140600
     19 C22         -4.4690    -0.4060     0.1230 ca         1 Y02       0.094100
     20 C23         -3.9150    -1.1930    -0.9110 ca         1 Y02      -0.081300
     21 C24         -4.7000    -2.1950    -1.5120 ca         1 Y02      -0.106500
     22 C25         -6.0230    -2.4190    -1.0910 ca         1 Y02      -0.072300
     23 C26         -6.5620    -1.6400    -0.0510 ca         1 Y02      -0.106500
     24 C27         -5.7930    -0.6330     0.5650 ca         1 Y02      -0.081300
     25 C28         -2.4800    -0.9730    -1.3800 c3         1 Y02      -0.043300
     26 C29         -6.8610    -3.5050    -1.7470 c3         1 Y02      -0.044800
     27 C30         -6.4010     0.1930     1.6930 c3         1 Y02      -0.043300
     28 HN          -1.0370     2.1230     1.8700 hn         1 Y02       0.319500
     29 HO1          2.4570    -2.2070     1.0180 ho         1 Y02       0.505000
     30 HO2          1.0360    -0.3020     1.7180 ho         1 Y02       0.513000
     31 HO3          3.8200     0.0080     1.8190 ho         1 Y02       0.462000
     32 H02          4.7450    -2.3060     1.4260 ha         1 Y02       0.173000
     33 H03          5.0340    -1.0100    -1.3590 ha         1 Y02       0.178000
     34 H04          2.7340    -1.0350    -1.5550 h1         1 Y02       0.092700
     35 H05          3.2500     0.9340    -0.1230 h1         1 Y02       0.062700
     36 H06          0.8090     0.2730    -0.9770 h1         1 Y02       0.109700
     37 H07          1.1070     2.3880     1.2170 h1         1 Y02       0.043700
     38 H08          8.5470    -0.8390     0.4780 hc         1 Y02       0.036144
     39 H08A         7.2020    -0.2330    -0.5020 hc         1 Y02       0.036144
     40 H08B         7.1470    -0.0830     1.2640 hc         1 Y02       0.036144
     41 H09          6.9070    -2.1950     2.7320 hc         1 Y02       0.036144
     42 H09A         6.7240    -3.7870     1.9680 hc         1 Y02       0.036144
     43 H09B         8.2830    -2.9420     1.8990 hc         1 Y02       0.036144
     44 H10          8.2750    -3.1840    -0.6430 hc         1 Y02       0.036144
     45 H10A         6.6910    -3.9860    -0.6070 hc         1 Y02       0.036144
     46 H10B         6.9350    -2.5430    -1.6090 hc         1 Y02       0.036144
     47 H19         -3.2250     2.8610     2.0300 h1         1 Y02       0.065700
     48 H19A        -2.9420     3.8640     0.5990 h1         1 Y02       0.065700
     49 H20         -3.4630     1.9200    -0.8890 h1         1 Y02       0.043700
     50 H20A        -4.8060     2.2980     0.2050 h1         1 Y02       0.043700
     51 H21          2.6010     4.6210    -1.2770 h1         1 Y02       0.035033
     52 H21A         0.9170     4.6920    -0.7200 h1         1 Y02       0.035033
     53 H21B         2.2340     4.4440     0.4520 h1         1 Y02       0.035033
     54 H24         -4.2810    -2.8050    -2.3110 ha         1 Y02       0.111500
     55 H26         -7.5830    -1.8180     0.2800 ha         1 Y02       0.111500
     56 H28         -1.7810    -1.0220    -0.5360 hc         1 Y02       0.043700
     57 H28A        -2.1670    -1.7330    -2.1070 hc         1 Y02       0.043700
     58 H28B        -2.3640     0.0080    -1.8560 hc         1 Y02       0.043700
     59 H29         -6.7280    -4.4640    -1.2330 hc         1 Y02       0.042700
     60 H29A        -7.9290    -3.2570    -1.7210 hc         1 Y02       0.042700
     61 H29B        -6.5820    -3.6450    -2.7980 hc         1 Y02       0.042700
     62 H30         -5.6910     0.3280     2.5180 hc         1 Y02       0.043700
     63 H30A        -6.6960     1.1870     1.3360 hc         1 Y02       0.043700
     64 H30B        -7.2940    -0.2870     2.1110 hc         1 Y02       0.043700
     65 C21          1.8850     4.2000    -0.5600 c3         1 Y02       0.141900
     66 C03          4.5300    -1.3770    -0.4630 c2         1 Y02      -0.286200
     67 C02          5.2490    -1.9360     0.5310 c2         1 Y02      -0.184200
@<TRIPOS>BOND
     1     1    16 1   
     2     1    17 1   
     3     1    28 1   
     4     2     9 1   
     5     2    29 1   
     6     3    11 1   
     7     3    30 1   
     8     4    10 1   
     9     4    31 1   
    10     5    16 2   
    11     6    12 1   
    12     6    65 1   
    13     7    18 1   
    14     7    19 1   
    15     8    13 1   
    16     8    14 1   
    17     8    15 1   
    18     8    67 1   
    19     9    10 1   
    20     9    34 1   
    21     9    66 1   
    22    10    11 1   
    23    10    35 1   
    24    11    12 1   
    25    11    36 1   
    26    12    16 1   
    27    12    37 1   
    28    13    38 1   
    29    13    39 1   
    30    13    40 1   
    31    14    41 1   
    32    14    42 1   
    33    14    43 1   
    34    15    44 1   
    35    15    45 1   
    36    15    46 1   
    37    17    18 1   
    38    17    47 1   
    39    17    48 1   
    40    18    49 1   
    41    18    50 1   
    42    19    20 ar  
    43    19    24 ar  
    44    20    21 ar  
    45    20    25 1   
    46    21    22 ar  
    47    21    54 1   
    48    22    23 ar  
    49    22    26 1   
    50    23    24 ar  
    51    23    55 1   
    52    24    27 1   
    53    25    56 1   
    54    25    57 1   
    55    25    58 1   
    56    26    59 1   
    57    26    60 1   
    58    26    61 1   
    59    27    62 1   
    60    27    63 1   
    61    27    64 1   
    62    32    67 1   
    63    33    66 1   
    64    51    65 1   
    65    52    65 1   
    66    53    65 1   
    67    66    67 2   
@<TRIPOS>SUBSTRUCTURE
     1 Y02         1 TEMP              0 ****  ****    0 ROOT
