@<TRIPOS>MOLECULE
Y02
   67    67     1     0     0
SMALL
bcc


@<TRIPOS>ATOM
      1 N           -1.5460     2.5890     0.0270 ns         1 Y02      -0.570900
      2 O1           3.2460    -0.6680    -2.2460 oh         1 Y02      -0.572800
      3 O2           0.6280     0.4520    -1.4160 oh         1 Y02      -0.577800
      4 O3           2.1990    -0.3970     0.5370 oh         1 Y02      -0.626800
      5 O4          -0.3100     3.5350    -1.6190 o          1 Y02      -0.584100
      6 O5           1.7570     3.3580     0.3680 os         1 Y02      -0.390600
      7 O6          -3.9300     1.0730     0.5140 os         1 Y02      -0.357900
      8 C01          6.2230    -2.5660     0.3030 c3         1 Y02      -0.018800
      9 C04          3.7950     0.1360    -1.2350 c3         1 Y02       0.155300
     10 C05          2.7500     0.6530    -0.2310 c3         1 Y02       0.075100
     11 C06          1.5650     1.3610    -0.8960 c3         1 Y02       0.171100
     12 C07          0.8650     2.3190     0.0790 c3         1 Y02       0.035100
     13 C08          7.0780    -1.6390     1.1630 c3         1 Y02      -0.082433
     14 C09          5.4800    -3.5600     1.2060 c3         1 Y02      -0.082433
     15 C10          7.1260    -3.3430    -0.6630 c3         1 Y02      -0.082433
     16 C11         -0.3940     2.8740    -0.5960 c          1 Y02       0.648100
     17 C19         -2.8550     2.9570    -0.4580 c3         1 Y02       0.099000
     18 C20         -3.7210     1.7450    -0.7230 c3         1 Y02       0.117400
     19 C22         -4.4030    -0.2080     0.4150 ca         1 Y02       0.094100
     20 C23         -3.4890    -1.2610     0.4230 ca         1 Y02      -0.081300
     21 C24         -3.9780    -2.5620     0.3470 ca         1 Y02      -0.124500
     22 C25         -5.3390    -2.8310     0.2650 ca         1 Y02      -0.072300
     23 C26         -6.2210    -1.7550     0.2700 ca         1 Y02      -0.124500
     24 C27         -5.7780    -0.4380     0.3440 ca         1 Y02      -0.081300
     25 C28         -2.0170    -0.9970     0.5370 c3         1 Y02      -0.043300
     26 C29         -5.8470    -4.2430     0.2100 c3         1 Y02      -0.044800
     27 C30         -6.7570     0.7000     0.3670 c3         1 Y02      -0.043300
     28 HN          -1.5110     2.0710     0.8910 hn         1 Y02       0.319500
     29 HO1          2.7130    -1.3610    -1.8410 ho         1 Y02       0.406000
     30 HO2          0.5550    -0.2810    -0.7930 ho         1 Y02       0.414000
     31 HO3          2.9170    -0.9140     0.9210 ho         1 Y02       0.423000
     32 H02          4.6220    -2.4680    -1.1820 ha         1 Y02       0.123000
     33 H03          5.4530     0.1330     0.1980 ha         1 Y02       0.128000
     34 H04          4.2080     1.0190    -1.7370 h1         1 Y02       0.092700
     35 H05          3.2690     1.3800     0.4080 h1         1 Y02       0.062700
     36 H06          1.9380     1.9610    -1.7320 h1         1 Y02       0.109700
     37 H07          0.5930     1.7750     0.9990 h1         1 Y02       0.043700
     38 H08          7.8110    -2.2200     1.7250 hc         1 Y02       0.036144
     39 H08A         7.6230    -0.9160     0.5540 hc         1 Y02       0.036144
     40 H08B         6.4760    -1.0850     1.8860 hc         1 Y02       0.036144
     41 H09          4.8330    -3.0380     1.9140 hc         1 Y02       0.036144
     42 H09A         4.8560    -4.2400     0.6230 hc         1 Y02       0.036144
     43 H09B         6.1870    -4.1650     1.7780 hc         1 Y02       0.036144
     44 H10          7.8430    -3.9560    -0.1120 hc         1 Y02       0.036144
     45 H10A         6.5440    -4.0100    -1.3030 hc         1 Y02       0.036144
     46 H10B         7.6890    -2.6670    -1.3080 hc         1 Y02       0.036144
     47 H19         -3.3480     3.6150     0.2620 h1         1 Y02       0.065700
     48 H19A        -2.7420     3.5180    -1.3830 h1         1 Y02       0.065700
     49 H20         -3.2310     1.0830    -1.4460 h1         1 Y02       0.043700
     50 H20A        -4.6710     2.0700    -1.1580 h1         1 Y02       0.043700
     51 H21          2.1460     4.9050     1.6130 h1         1 Y02       0.035033
     52 H21A         0.4330     4.7440     1.2040 h1         1 Y02       0.035033
     53 H21B         1.1780     3.6140     2.3500 h1         1 Y02       0.035033
     54 H24         -3.2710    -3.3850     0.3510 ha         1 Y02       0.129500
     55 H26         -7.2890    -1.9400     0.2150 ha         1 Y02       0.129500
     56 H28         -1.7680    -0.4990     1.4770 hc         1 Y02       0.043700
     57 H28A        -1.4530    -1.9290     0.5020 hc         1 Y02       0.043700
     58 H28B        -1.6530    -0.3610    -0.2700 hc         1 Y02       0.043700
     59 H29         -6.1930    -4.5760     1.1900 hc         1 Y02       0.042700
     60 H29A        -6.6880    -4.3410    -0.4770 hc         1 Y02       0.042700
     61 H29B        -5.0690    -4.9350    -0.1110 hc         1 Y02       0.042700
     62 H30         -6.5660     1.3830     1.1940 hc         1 Y02       0.043700
     63 H30A        -6.7200     1.2900    -0.5510 hc         1 Y02       0.043700
     64 H30B        -7.7750     0.3280     0.4690 hc         1 Y02       0.043700
     65 C21          1.3480     4.1870     1.4320 c3         1 Y02       0.118700
     66 C03          4.9030    -0.5320    -0.4630 c2         1 Y02      -0.236200
     67 C02          5.1870    -1.8290    -0.5050 c2         1 Y02      -0.134200
@<TRIPOS>BOND
     1     1    16 1   
     2     1    17 1   
     3     1    28 1   
     4     2     9 1   
     5     2    29 1   
     6     3    11 1   
     7     3    30 1   
     8     4    10 1   
     9     4    31 1   
    10     5    16 2   
    11     6    12 1   
    12     6    65 1   
    13     7    18 1   
    14     7    19 1   
    15     8    13 1   
    16     8    14 1   
    17     8    15 1   
    18     8    67 1   
    19     9    10 1   
    20     9    34 1   
    21     9    66 1   
    22    10    11 1   
    23    10    35 1   
    24    11    12 1   
    25    11    36 1   
    26    12    16 1   
    27    12    37 1   
    28    13    38 1   
    29    13    39 1   
    30    13    40 1   
    31    14    41 1   
    32    14    42 1   
    33    14    43 1   
    34    15    44 1   
    35    15    45 1   
    36    15    46 1   
    37    17    18 1   
    38    17    47 1   
    39    17    48 1   
    40    18    49 1   
    41    18    50 1   
    42    19    20 ar  
    43    19    24 ar  
    44    20    21 ar  
    45    20    25 1   
    46    21    22 ar  
    47    21    54 1   
    48    22    23 ar  
    49    22    26 1   
    50    23    24 ar  
    51    23    55 1   
    52    24    27 1   
    53    25    56 1   
    54    25    57 1   
    55    25    58 1   
    56    26    59 1   
    57    26    60 1   
    58    26    61 1   
    59    27    62 1   
    60    27    63 1   
    61    27    64 1   
    62    32    67 1   
    63    33    66 1   
    64    51    65 1   
    65    52    65 1   
    66    53    65 1   
    67    66    67 2   
@<TRIPOS>SUBSTRUCTURE
     1 Y02         1 TEMP              0 ****  ****    0 ROOT
