@<TRIPOS>MOLECULE
Y03
   33    34     1     0     0
SMALL
No Charge or Current Charge


@<TRIPOS>ATOM
      1 OAS         21.4330    14.9460    -8.5600 o          1 Y03      -0.904500
      2 PAR         22.0980    13.9350    -9.4340 p5         1 Y03       1.203000
      3 OAU         21.2520    13.6880   -10.6390 o          1 Y03      -0.904500
      4 OAT         22.2840    12.6520    -8.6940 o          1 Y03      -0.904500
      5 CAM         23.7240    14.5850   -10.0010 ca         1 Y03      -0.142500
      6 CAN         24.0140    15.9580    -9.8510 ca         1 Y03      -0.054000
      7 CAO         25.2500    16.4750   -10.2750 ca         1 Y03      -0.179000
      8 CAP         26.2060    15.6290   -10.8540 ca         1 Y03      -0.133000
      9 CAQ         25.9270    14.2630   -11.0120 ca         1 Y03      -0.219000
     10 CAL         24.6850    13.7350   -10.5880 ca         1 Y03       0.151100
     11 OAK         24.3860    12.3980   -10.7350 os         1 Y03      -0.326100
     12 CAA         25.3550    11.4100   -11.1460 c3         1 Y03       0.097600
     13 CAB         24.7630     9.9840   -11.0520 c          1 Y03       0.591100
     14 OAD         25.2790     9.0300   -11.6340 o          1 Y03      -0.686100
     15 NAC         23.6250     9.8880   -10.2620 ns         1 Y03      -0.125000
     16 CAE         22.7970     8.7880    -9.8970 ca         1 Y03       0.030000
     17 CAF         23.0750     7.4500   -10.2600 ca         1 Y03      -0.141500
     18 CAG         22.2140     6.4140    -9.8630 ca         1 Y03       0.142500
     19 Cl1         22.5740     4.7550   -10.3210 cl         1 Y03      -0.263000
     20 CAH         21.0720     6.6920    -9.1010 ca         1 Y03      -0.174000
     21 CAI         20.7900     8.0140    -8.7350 ca         1 Y03       0.142500
     22 Cl2         19.3590     8.3700    -7.7790 cl         1 Y03      -0.263000
     23 CAJ         21.6460     9.0550    -9.1290 ca         1 Y03      -0.141500
     24 H3          23.2800    16.6250    -9.4050 ha         1 Y03       0.135000
     25 H4          25.4640    17.5350   -10.1540 ha         1 Y03       0.070000
     26 H5          27.1610    16.0320   -11.1820 ha         1 Y03       0.063000
     27 H6          26.6810    13.6300   -11.4690 ha         1 Y03       0.076000
     28 H7          25.6730    11.5850   -12.1810 h1         1 Y03       0.038200
     29 H8          26.2340    11.4440   -10.4900 h1         1 Y03       0.038200
     30 H9          23.3310    10.7810    -9.8790 hn         1 Y03       0.282000
     31 H10         23.9500     7.1880   -10.8440 ha         1 Y03       0.192500
     32 H11         20.4090     5.8870    -8.7960 ha         1 Y03       0.114000
     33 H12         21.4070    10.0740    -8.8320 ha         1 Y03       0.192500
@<TRIPOS>BOND
     1     1     2 1   
     2     2     3 1   
     3     2     4 1   
     4     2     5 1   
     5     5     6 ar  
     6     5    10 ar  
     7     6     7 ar  
     8     6    24 1   
     9     7     8 ar  
    10     7    25 1   
    11     8     9 ar  
    12     8    26 1   
    13     9    10 ar  
    14     9    27 1   
    15    10    11 1   
    16    11    12 1   
    17    12    13 1   
    18    12    28 1   
    19    12    29 1   
    20    13    14 2   
    21    13    15 1   
    22    15    16 1   
    23    15    30 1   
    24    16    17 ar  
    25    16    23 ar  
    26    17    18 ar  
    27    17    31 1   
    28    18    19 1   
    29    18    20 ar  
    30    20    21 ar  
    31    20    32 1   
    32    21    22 1   
    33    21    23 ar  
    34    23    33 1   
@<TRIPOS>SUBSTRUCTURE
     1 Y03         1 TEMP              0 ****  ****    0 ROOT
