@<TRIPOS>MOLECULE
Y03
   33    34     1     0     0
SMALL
abcg2


@<TRIPOS>ATOM
      1 OAS         21.3820    14.5660    -8.7210 o          1 Y03      -0.904500
      2 PAR         22.0090    13.6400    -9.7560 p5         1 Y03       1.203000
      3 OAU         21.2690    13.5900   -11.0900 o          1 Y03      -0.904500
      4 OAT         22.3160    12.2420    -9.1800 o          1 Y03      -0.904500
      5 CAM         23.6720    14.3810   -10.1250 ca         1 Y03      -0.142500
      6 CAN         23.9980    15.6670    -9.6900 ca         1 Y03      -0.054000
      7 CAO         25.2450    16.2410    -9.9320 ca         1 Y03      -0.179000
      8 CAP         26.2060    15.5190   -10.6300 ca         1 Y03      -0.133000
      9 CAQ         25.9150    14.2360   -11.0850 ca         1 Y03      -0.219000
     10 CAL         24.6600    13.6850   -10.8350 ca         1 Y03       0.151100
     11 OAK         24.3200    12.4400   -11.3060 os         1 Y03      -0.326100
     12 CAA         25.2990    11.4240   -11.3450 c3         1 Y03       0.097600
     13 CAB         24.6950    10.0670   -11.0080 c          1 Y03       0.591100
     14 OAD         25.3080     9.0570   -11.3500 o          1 Y03      -0.686100
     15 NAC         23.5330    10.0930   -10.3160 ns         1 Y03      -0.125000
     16 CAE         22.7930     8.9860    -9.8830 ca         1 Y03       0.030000
     17 CAF         23.0640     7.6660   -10.2650 ca         1 Y03      -0.141500
     18 CAG         22.2460     6.6530    -9.7880 ca         1 Y03       0.142500
     19 CL1         22.5900     5.0050   -10.2740 cl         1 Y03      -0.263000
     20 CAH         21.1690     6.8820    -8.9460 ca         1 Y03      -0.174000
     21 CAI         20.9280     8.2020    -8.5870 ca         1 Y03       0.142500
     22 CL2         19.5790     8.5470    -7.5230 cl         1 Y03      -0.263000
     23 CAJ         21.7090     9.2500    -9.0320 ca         1 Y03      -0.141500
     24 H3          23.2510    16.2150    -9.1300 ha         1 Y03       0.135000
     25 H4          25.4640    17.2400    -9.5760 ha         1 Y03       0.070000
     26 H5          27.1810    15.9480   -10.8280 ha         1 Y03       0.063000
     27 H6          26.6560    13.6770   -11.6420 ha         1 Y03       0.076000
     28 H7          25.7520    11.3440   -12.3360 h1         1 Y03       0.038200
     29 H8          26.0960    11.6160   -10.6200 h1         1 Y03       0.038200
     30 H9          23.1470    11.0230   -10.0060 hn         1 Y03       0.282000
     31 H10         23.8900     7.4440   -10.9160 ha         1 Y03       0.192500
     32 H11         20.5490     6.0750    -8.5870 ha         1 Y03       0.114000
     33 H12         21.5070    10.2740    -8.7460 ha         1 Y03       0.192500
@<TRIPOS>BOND
     1     1     2 1   
     2     2     3 1   
     3     2     4 1   
     4     2     5 1   
     5     5     6 ar  
     6     5    10 ar  
     7     6     7 ar  
     8     6    24 1   
     9     7     8 ar  
    10     7    25 1   
    11     8     9 ar  
    12     8    26 1   
    13     9    10 ar  
    14     9    27 1   
    15    10    11 1   
    16    11    12 1   
    17    12    13 1   
    18    12    28 1   
    19    12    29 1   
    20    13    14 2   
    21    13    15 1   
    22    15    16 1   
    23    15    30 1   
    24    16    17 ar  
    25    16    23 ar  
    26    17    18 ar  
    27    17    31 1   
    28    18    19 1   
    29    18    20 ar  
    30    20    21 ar  
    31    20    32 1   
    32    21    22 1   
    33    21    23 ar  
    34    23    33 1   
@<TRIPOS>SUBSTRUCTURE
     1 Y03         1 TEMP              0 ****  ****    0 ROOT
