@<TRIPOS>MOLECULE
Y04
   33    34     1     0     0
SMALL
abcg2


@<TRIPOS>ATOM
      1 OAC         21.8830    13.4170   -12.4770 o          1 Y04      -0.895500
      2 PAV         21.8870    13.6220   -10.9640 p5         1 Y04       1.197000
      3 OAD         21.8600    12.2980   -10.1730 o          1 Y04      -0.895500
      4 OAB         20.8420    14.6150   -10.4660 o          1 Y04      -0.895500
      5 CAU         23.5240    14.3940   -10.5450 ca         1 Y04      -0.146500
      6 CAM         23.5980    15.7030   -10.0660 ca         1 Y04      -0.054000
      7 CAI         24.8080    16.2990    -9.7140 ca         1 Y04      -0.183000
      8 CAH         25.9890    15.5790    -9.8440 ca         1 Y04      -0.132000
      9 CAL         25.9560    14.2730   -10.3270 ca         1 Y04      -0.223000
     10 CAT         24.7350    13.6960   -10.6710 ca         1 Y04       0.158100
     11 OAP         24.6620    12.4260   -11.1830 os         1 Y04      -0.328100
     12 CAN         25.5630    11.4300   -10.7380 c3         1 Y04       0.099600
     13 CAQ         24.8330    10.1210   -10.4760 c          1 Y04       0.587100
     14 OAA         25.4790     9.0700   -10.4530 o          1 Y04      -0.708100
     15 NAO         23.5150    10.2210   -10.2490 ns         1 Y04      -0.155000
     16 CAS         22.7230     9.0940    -9.9340 ca         1 Y04       0.046000
     17 CAR         22.8160     8.4330    -8.7070 ca         1 Y04       0.119000
     18 CL1         23.9390     8.9960    -7.4930 cl         1 Y04      -0.231000
     19 CAJ         22.0040     7.3460    -8.4090 ca         1 Y04      -0.119000
     20 CAF         21.0660     6.9150    -9.3390 ca         1 Y04      -0.152000
     21 CAG         20.9410     7.5740   -10.5580 ca         1 Y04      -0.116000
     22 CAK         21.7680     8.6510   -10.8490 ca         1 Y04      -0.091000
     23 H3          22.6720    16.2510    -9.9530 ha         1 Y04       0.135000
     24 H4          24.8260    17.3160    -9.3410 ha         1 Y04       0.068000
     25 H5          26.9390    16.0260    -9.5780 ha         1 Y04       0.061000
     26 H6          26.8760    13.7170   -10.4470 ha         1 Y04       0.076000
     27 H7          26.3410    11.2460   -11.4810 h1         1 Y04       0.037200
     28 H8          26.0460    11.7230    -9.8010 h1         1 Y04       0.037200
     29 H9          22.9920    11.1420   -10.3130 hn         1 Y04       0.288000
     30 H10         22.1020     6.8520    -7.4520 ha         1 Y04       0.097000
     31 H11         20.4310     6.0710    -9.1040 ha         1 Y04       0.083000
     32 H12         20.2070     7.2470   -11.2830 ha         1 Y04       0.094000
     33 H13         21.6880     9.1700   -11.7950 ha         1 Y04       0.146000
@<TRIPOS>BOND
     1     1     2 1   
     2     2     3 1   
     3     2     4 1   
     4     2     5 1   
     5     5     6 ar  
     6     5    10 ar  
     7     6     7 ar  
     8     6    23 1   
     9     7     8 ar  
    10     7    24 1   
    11     8     9 ar  
    12     8    25 1   
    13     9    10 ar  
    14     9    26 1   
    15    10    11 1   
    16    11    12 1   
    17    12    13 1   
    18    12    27 1   
    19    12    28 1   
    20    13    14 2   
    21    13    15 1   
    22    15    16 1   
    23    15    29 1   
    24    16    17 ar  
    25    16    22 ar  
    26    17    18 1   
    27    17    19 ar  
    28    19    20 ar  
    29    19    30 1   
    30    20    21 ar  
    31    20    31 1   
    32    21    22 ar  
    33    21    32 1   
    34    22    33 1   
@<TRIPOS>SUBSTRUCTURE
     1 Y04         1 TEMP              0 ****  ****    0 ROOT
