@<TRIPOS>MOLECULE
Y04
   33    34     1     0     0
SMALL
No Charge or Current Charge


@<TRIPOS>ATOM
      1 OAC         21.6590    13.4630   -12.1910 o          1 Y04      -0.895500
      2 PAV         21.9000    13.7030   -10.7370 p5         1 Y04       1.197000
      3 OAD         21.8940    12.3980   -10.0100 o          1 Y04      -0.895500
      4 OAB         20.8380    14.6070   -10.2020 o          1 Y04      -0.895500
      5 CAU         23.5380    14.5200   -10.5640 ca         1 Y04      -0.146500
      6 CAM         23.6160    15.9160   -10.3720 ca         1 Y04      -0.054000
      7 CAI         24.8640    16.5430   -10.2080 ca         1 Y04      -0.183000
      8 CAH         26.0430    15.7830   -10.2330 ca         1 Y04      -0.132000
      9 CAL         25.9760    14.3950   -10.4270 ca         1 Y04      -0.223000
     10 CAT         24.7250    13.7630   -10.5970 ca         1 Y04       0.158100
     11 OAP         24.6390    12.4080   -10.7980 os         1 Y04      -0.328100
     12 CAN         25.5850    11.4830   -10.2330 c3         1 Y04       0.099600
     13 CAQ         24.9710    10.0660   -10.1780 c          1 Y04       0.587100
     14 OAA         25.6540     9.0460   -10.2750 o          1 Y04      -0.708100
     15 NAO         23.5940    10.0370   -10.0270 ns         1 Y04      -0.155000
     16 CAS         22.7310     8.9280    -9.8550 ca         1 Y04       0.046000
     17 CAR         22.8920     8.0000    -8.7980 ca         1 Y04       0.119000
     18 Cl1         24.1380     8.2020    -7.5620 cl         1 Y04      -0.231000
     19 CAJ         22.0060     6.9150    -8.6740 ca         1 Y04      -0.119000
     20 CAF         20.9540     6.7500    -9.5910 ca         1 Y04      -0.152000
     21 CAG         20.7760     7.6810   -10.6260 ca         1 Y04      -0.116000
     22 CAK         21.6570     8.7690   -10.7530 ca         1 Y04      -0.091000
     23 H3          22.7070    16.5140   -10.3450 ha         1 Y04       0.135000
     24 H4          24.9140    17.6180   -10.0600 ha         1 Y04       0.068000
     25 H5          27.0070    16.2700   -10.1070 ha         1 Y04       0.061000
     26 H6          26.8970    13.8200   -10.4570 ha         1 Y04       0.076000
     27 H7          26.5100    11.4550   -10.8220 h1         1 Y04       0.037200
     28 H8          25.8260    11.7690    -9.2010 h1         1 Y04       0.037200
     29 H9          23.1340    10.9480   -10.0440 hn         1 Y04       0.288000
     30 H10         22.1290     6.2060    -7.8590 ha         1 Y04       0.097000
     31 H11         20.2710     5.9100    -9.4900 ha         1 Y04       0.083000
     32 H12         19.9560     7.5610   -11.3300 ha         1 Y04       0.094000
     33 H13         21.5120     9.4870   -11.5580 ha         1 Y04       0.146000
@<TRIPOS>BOND
     1     1     2 1   
     2     2     3 1   
     3     2     4 1   
     4     2     5 1   
     5     5     6 ar  
     6     5    10 ar  
     7     6     7 ar  
     8     6    23 1   
     9     7     8 ar  
    10     7    24 1   
    11     8     9 ar  
    12     8    25 1   
    13     9    10 ar  
    14     9    26 1   
    15    10    11 1   
    16    11    12 1   
    17    12    13 1   
    18    12    27 1   
    19    12    28 1   
    20    13    14 2   
    21    13    15 1   
    22    15    16 1   
    23    15    29 1   
    24    16    17 ar  
    25    16    22 ar  
    26    17    18 1   
    27    17    19 ar  
    28    19    20 ar  
    29    19    30 1   
    30    20    21 ar  
    31    20    31 1   
    32    21    22 ar  
    33    21    32 1   
    34    22    33 1   
@<TRIPOS>SUBSTRUCTURE
     1 Y04         1 TEMP              0 ****  ****    0 ROOT
