@<TRIPOS>MOLECULE
Y05
  101   109     1     0     0
SMALL
abcg2


@<TRIPOS>ATOM
      1 C13         53.4560    28.5100     6.9260 ca         1 Y05       0.000000
      2 C15         54.5940    28.5950     4.8070 ca         1 Y05       0.229400
      3 C21         57.5190    26.4140     2.5800 c3         1 Y05      -0.046100
      4 C22         58.2400    25.6410     1.5130 ca         1 Y05      -0.036300
      5 C24         59.1150    25.4530    -0.7000 ca         1 Y05       0.209500
      6 C26         59.4400    24.1240    -0.5160 ca         1 Y05      -0.185000
      7 C01         51.9390    34.8420     7.6530 c3         1 Y05      -0.090100
      8 C02         53.0900    34.1340     6.9710 c6         1 Y05       0.161800
      9 C04         52.7350    32.6900     6.6540 c6         1 Y05       0.171800
     10 C06         54.2640    32.8020     4.7710 c6         1 Y05       0.171800
     11 C07         54.5230    34.2580     5.1390 c6         1 Y05       0.161800
     12 C09         54.8300    35.0790     3.9040 c3         1 Y05      -0.090100
     13 C11         53.8770    30.6640     5.8750 ca         1 Y05       0.369000
     14 C12         53.3590    29.8760     6.9380 ca         1 Y05      -0.196000
     15 C14         54.0720    27.8390     5.8640 ca         1 Y05      -0.256600
     16 C16         54.4840    29.9840     4.8120 ca         1 Y05      -0.198000
     17 C18         55.3040    26.7150     3.7120 cc         1 Y05       0.501900
     18 C19         56.0200    26.0740     2.5410 c3         1 Y05       0.072400
     19 C23         58.5240    26.2250     0.2820 ca         1 Y05      -0.169000
     20 C27         59.1420    23.5780     0.7180 ca         1 Y05       0.209500
     21 C29         58.5540    24.3020     1.7340 ca         1 Y05      -0.169000
     22 C33         54.5760    26.2070    -0.9450 c3         1 Y05      -0.001400
     23 C36         52.3570    23.9900    -2.4640 cc         1 Y05       0.221300
     24 C37         50.9700    23.4610    -2.5650 c3         1 Y05       0.169000
     25 C40         53.5160    23.5280    -3.0960 cc         1 Y05      -0.100300
     26 C41         54.0420    22.5910    -4.1120 cx         1 Y05      -0.010400
     27 C43         54.5900    23.2680    -5.3330 cx         1 Y05      -0.095400
     28 C44         55.5130    22.9340    -4.2010 cx         1 Y05      -0.199700
     29 C46         55.8380    24.0280    -3.2020 c5         1 Y05       0.299300
     30 C49         54.5010    24.3460    -2.6220 cd         1 Y05      -0.239300
     31 C51         54.8650    24.4760     4.5640 ca         1 Y05      -0.003400
     32 C52         55.9250    23.7680     5.0720 ca         1 Y05      -0.045000
     33 C53         56.0540    22.3830     4.8770 ca         1 Y05      -0.149000
     34 C54         55.1080    21.7000     4.1520 ca         1 Y05       0.214000
     35 C56         54.0080    22.3870     3.6300 ca         1 Y05      -0.222900
     36 C57         52.8690    22.0710     2.8390 cc         1 Y05       0.605800
     37 C60         50.0770    21.0710     1.0970 c3         1 Y05      -0.378100
     38 C66         53.8810    23.7690     3.8570 ca         1 Y05       0.001800
     39 C67         54.1570    26.4000     5.8350 c          1 Y05       0.585600
     40 F25         59.3880    26.0130    -1.8850 f          1 Y05      -0.169000
     41 F28         59.4350    22.2880     0.9280 f          1 Y05      -0.169000
     42 F38         50.1160    24.4270    -3.0070 f          1 Y05      -0.121000
     43 F39         50.9560    22.4670    -3.4920 f          1 Y05      -0.121000
     44 F47         56.7130    23.5780    -2.2600 f          1 Y05      -0.104000
     45 F48         56.4470    25.1060    -3.7680 f          1 Y05      -0.104000
     46 N05         53.8030    32.0330     5.9130 nh         1 Y05      -0.794400
     47 N17         55.2190    27.9910     3.7370 nd         1 Y05      -0.645100
     48 N30         55.4170    26.4760     1.2960 ns         1 Y05      -0.507900
     49 N34         53.9390    25.2370    -1.7870 na         1 Y05       0.198800
     50 N35         52.6390    25.0060    -1.6620 nd         1 Y05      -0.480800
     51 N50         54.7990    25.8920     4.6950 n          1 Y05      -0.261500
     52 N58         52.5420    20.8380     2.2900 nu         1 Y05      -0.832300
     53 N63         52.1400    23.1320     2.6390 nd         1 Y05      -0.563100
     54 N64         52.7490    24.1650     3.2330 na         1 Y05       0.108600
     55 O10         53.4110    34.8330     5.7880 os         1 Y05      -0.448000
     56 O32         54.9230    24.3840     0.5700 o          1 Y05      -0.537100
     57 O61         51.8840    19.2630     0.5000 o          1 Y05      -0.521000
     58 O62         52.3540    21.6670    -0.0720 o          1 Y05      -0.521000
     59 O68         53.7210    25.6370     6.6750 o          1 Y05      -0.516000
     60 S59         51.7860    20.6740     0.8230 s6         1 Y05       1.230100
     61 CL55        55.2790    20.0080     3.8780 cl         1 Y05      -0.171000
     62 H80         53.0510    27.9450     7.7550 ha         1 Y05       0.135000
     63 H83         57.9120    26.1530     3.5660 hc         1 Y05       0.068700
     64 H82         57.6530    27.4890     2.4490 hc         1 Y05       0.068700
     65 H85         59.9030    23.5390    -1.3000 ha         1 Y05       0.154000
     66 H71         51.6820    34.3350     8.5830 hc         1 Y05       0.048200
     67 H70         52.2040    35.8700     7.8960 hc         1 Y05       0.048200
     68 H69         51.0500    34.8550     7.0190 hc         1 Y05       0.048200
     69 H03         53.9640    34.1290     7.6400 h1         1 Y05       0.044200
     70 H72         51.7960    32.6600     6.0820 h1         1 Y05       0.052950
     71 H73         52.5560    32.1860     7.6000 h1         1 Y05       0.052950
     72 H74         53.5440    32.7450     3.9410 h1         1 Y05       0.052950
     73 H75         55.2100    32.4000     4.4130 h1         1 Y05       0.052950
     74 H08         55.3910    34.2830     5.8170 h1         1 Y05       0.044200
     75 H77         55.0440    36.1140     4.1680 hc         1 Y05       0.048200
     76 H78         55.7050    34.6780     3.3910 hc         1 Y05       0.048200
     77 H76         53.9930    35.0670     3.2050 hc         1 Y05       0.048200
     78 H79         52.8890    30.3380     7.7920 ha         1 Y05       0.120000
     79 H81         54.8800    30.5030     3.9520 ha         1 Y05       0.131000
     80 H20         55.9270    24.9930     2.5900 h1         1 Y05       0.110700
     81 H84         58.2860    27.2630     0.0920 ha         1 Y05       0.132000
     82 H86         58.3330    23.8310     2.6840 ha         1 Y05       0.132000
     83 H89         55.4620    26.5970    -1.4480 h1         1 Y05       0.090200
     84 H88         53.8920    27.0430    -0.7940 h1         1 Y05       0.090200
     85 H90         50.5790    23.0700    -1.6260 h2         1 Y05       0.076700
     86 H42         53.7090    21.5630    -4.1600 hc         1 Y05       0.117700
     87 H92         54.7070    22.6740    -6.2310 hc         1 Y05       0.084200
     88 H91         54.3120    24.2990    -5.5120 hc         1 Y05       0.084200
     89 H45         56.2610    22.1650    -4.3490 hc         1 Y05       0.115700
     90 H93         56.6980    24.2950     5.6160 ha         1 Y05       0.128000
     91 H94         56.9100    21.8650     5.2850 ha         1 Y05       0.138000
     92 H96         49.6720    20.3940     1.8450 h1         1 Y05       0.105033
     93 H97         49.9970    22.1020     1.4310 h1         1 Y05       0.105033
     94 H98         49.5520    20.9410     0.1510 h1         1 Y05       0.105033
     95 H101        51.2190    25.3790     2.6050 h1         1 Y05       0.061700
     96 H99         51.9050    25.8500     4.1590 h1         1 Y05       0.061700
     97 H100        52.7840    26.1880     2.6480 h1         1 Y05       0.061700
     98 H87         55.4420    27.4580     1.0590 hn         1 Y05       0.326500
     99 H95         52.4910    20.0310     2.9000 hn         1 Y05       0.520000
    100 C31         54.9820    25.5830     0.3860 c          1 Y05       0.579100
    101 C65         52.1440    25.4760     3.1650 c3         1 Y05       0.080900
@<TRIPOS>BOND
     1     1    14 ar  
     2     1    15 ar  
     3     1    62 1   
     4     2    15 ar  
     5     2    16 ar  
     6     2    47 1   
     7     3     4 1   
     8     3    18 1   
     9     3    63 1   
    10     3    64 1   
    11     4    19 ar  
    12     4    21 ar  
    13     5     6 ar  
    14     5    19 ar  
    15     5    40 1   
    16     6    20 ar  
    17     6    65 1   
    18     7     8 1   
    19     7    66 1   
    20     7    67 1   
    21     7    68 1   
    22     8     9 1   
    23     8    55 1   
    24     8    69 1   
    25     9    46 1   
    26     9    70 1   
    27     9    71 1   
    28    10    11 1   
    29    10    46 1   
    30    10    72 1   
    31    10    73 1   
    32    11    12 1   
    33    11    55 1   
    34    11    74 1   
    35    12    75 1   
    36    12    76 1   
    37    12    77 1   
    38    13    14 ar  
    39    13    16 ar  
    40    13    46 1   
    41    14    78 1   
    42    15    39 1   
    43    16    79 1   
    44    17    18 1   
    45    17    47 2   
    46    17    51 1   
    47    18    48 1   
    48    18    80 1   
    49    19    81 1   
    50    20    21 ar  
    51    20    41 1   
    52    21    82 1   
    53    22    49 1   
    54    22    83 1   
    55    22    84 1   
    56    22   100 1   
    57    23    24 1   
    58    23    25 1   
    59    23    50 2   
    60    24    42 1   
    61    24    43 1   
    62    24    85 1   
    63    25    26 1   
    64    25    30 2   
    65    26    27 1   
    66    26    28 1   
    67    26    86 1   
    68    27    28 1   
    69    27    87 1   
    70    27    88 1   
    71    28    29 1   
    72    28    89 1   
    73    29    30 1   
    74    29    44 1   
    75    29    45 1   
    76    30    49 1   
    77    31    32 ar  
    78    31    38 ar  
    79    31    51 1   
    80    32    33 ar  
    81    32    90 1   
    82    33    34 ar  
    83    33    91 1   
    84    34    35 ar  
    85    34    61 1   
    86    35    36 1   
    87    35    38 ar  
    88    36    52 1   
    89    36    53 2   
    90    37    60 1   
    91    37    92 1   
    92    37    93 1   
    93    37    94 1   
    94    38    54 1   
    95    39    51 1   
    96    39    59 2   
    97    48    98 1   
    98    48   100 1   
    99    49    50 1   
   100    52    60 1   
   101    52    99 1   
   102    53    54 1   
   103    54   101 1   
   104    56   100 2   
   105    57    60 2   
   106    58    60 2   
   107    95   101 1   
   108    96   101 1   
   109    97   101 1   
@<TRIPOS>SUBSTRUCTURE
     1 Y05         1 TEMP              0 ****  ****    0 ROOT
