@<TRIPOS>MOLECULE
Y05
  101   109     1     0     0
SMALL
No Charge or Current Charge


@<TRIPOS>ATOM
      1 C13         53.0770    28.3740     6.6340 ca         1 Y05       0.000000
      2 C15         54.5480    28.7410     4.7310 ca         1 Y05       0.229400
      3 C21         57.2420    27.4030     1.7300 c3         1 Y05      -0.046100
      4 C22         58.0470    26.8020     0.5810 ca         1 Y05      -0.036300
      5 C24         58.6180    26.7150    -1.7880 ca         1 Y05       0.209500
      6 C26         59.4890    25.6430    -1.5520 ca         1 Y05      -0.185000
      7 C01         51.7630    34.9940     7.6060 c3         1 Y05      -0.090100
      8 C02         52.9920    34.0540     7.5890 c6         1 Y05       0.161800
      9 C04         52.7600    32.7840     6.7090 c6         1 Y05       0.171800
     10 C06         55.2130    32.8020     6.1840 c6         1 Y05       0.171800
     11 C07         55.3440    34.0710     7.0870 c6         1 Y05       0.161800
     12 C09         56.4590    35.0280     6.6030 c3         1 Y05      -0.090100
     13 C11         53.9350    30.6080     6.1880 ca         1 Y05       0.369000
     14 C12         53.1630    29.7330     6.9660 ca         1 Y05      -0.196000
     15 C14         53.7730    27.8820     5.5110 ca         1 Y05      -0.256600
     16 C16         54.6240    30.0980     5.0750 ca         1 Y05      -0.198000
     17 C18         55.1900    27.0300     3.3030 cc         1 Y05       0.501900
     18 C19         55.9880    26.5540     2.0780 c3         1 Y05       0.072400
     19 C23         57.9010    27.2960    -0.7300 ca         1 Y05      -0.169000
     20 C27         59.6340    25.1490    -0.2500 ca         1 Y05       0.209500
     21 C29         58.9190    25.7220     0.8140 ca         1 Y05      -0.169000
     22 C33         54.2850    25.3600    -1.1760 c3         1 Y05      -0.001400
     23 C36         53.0880    22.2050    -2.2560 cc         1 Y05       0.221300
     24 C37         52.1700    21.0060    -2.2030 c3         1 Y05       0.169000
     25 C40         54.2950    22.2460    -2.9750 cc         1 Y05      -0.100300
     26 C41         55.0680    21.2380    -3.6680 cx         1 Y05      -0.010400
     27 C43         55.6510    21.5520    -5.0270 cx         1 Y05      -0.095400
     28 C44         56.4450    21.8880    -3.7760 cx         1 Y05      -0.199700
     29 C46         56.2910    23.3480    -3.2000 c5         1 Y05       0.299300
     30 C49         54.8500    23.4260    -2.7570 cd         1 Y05      -0.239300
     31 C51         54.3130    24.7420     3.5020 ca         1 Y05      -0.003400
     32 C52         55.2520    23.7850     3.9530 ca         1 Y05      -0.045000
     33 C53         55.1360    22.4260     3.5800 ca         1 Y05      -0.149000
     34 C54         54.0520    21.9900     2.7960 ca         1 Y05       0.214000
     35 C56         53.0910    22.9410     2.4260 ca         1 Y05      -0.222900
     36 C57         51.8550    22.8480     1.6980 cc         1 Y05       0.605800
     37 C60         49.6250    21.6440     3.2900 c3         1 Y05      -0.378100
     38 C66         53.2010    24.2570     2.7770 ca         1 Y05       0.001800
     39 C67         53.6920    26.4580     5.1300 c          1 Y05       0.585600
     40 F25         58.4640    27.1890    -3.0430 f          1 Y05      -0.169000
     41 F28         60.4670    24.1110    -0.0160 f          1 Y05      -0.169000
     42 F38         51.8770    20.5470    -3.4420 f          1 Y05      -0.121000
     43 F39         52.7370    19.9810    -1.5240 f          1 Y05      -0.121000
     44 F47         57.1750    23.5320    -2.1420 f          1 Y05      -0.104000
     45 F48         56.5990    24.2970    -4.1710 f          1 Y05      -0.104000
     46 N05         54.0120    31.9770     6.5390 nh         1 Y05      -0.794400
     47 N17         55.2710    28.3300     3.6120 nd         1 Y05      -0.645100
     48 N30         55.1540    26.3870     0.8650 ns         1 Y05      -0.507900
     49 N34         54.0400    24.0750    -1.8340 na         1 Y05       0.198800
     50 N35         52.8870    23.3290    -1.5740 nd         1 Y05      -0.480800
     51 N50         54.3950    26.0930     3.9830 n          1 Y05      -0.261500
     52 N58         51.3550    21.7210     1.1550 nu         1 Y05      -0.832300
     53 N63         51.2270    24.0130     1.5770 nd         1 Y05      -0.563100
     54 N64         52.0750    24.8820     2.2540 na         1 Y05       0.108600
     55 O10         54.1100    34.8230     7.0920 os         1 Y05      -0.448000
     56 O32         55.6800    24.2120     0.4460 o          1 Y05      -0.537100
     57 O61         50.0380    19.6900     1.5600 o          1 Y05      -0.521000
     58 O62         48.8980    21.8040     0.7360 o          1 Y05      -0.521000
     59 O68         53.0280    25.6530     5.7710 o          1 Y05      -0.516000
     60 S59         49.8810    21.1430     1.5970 s6         1 Y05       1.230100
     61 Cl55        53.9180    20.2920     2.3500 cl         1 Y05      -0.171000
     62 H80         52.4730    27.7100     7.2500 ha         1 Y05       0.135000
     63 H83         57.8770    27.4890     2.6210 hc         1 Y05       0.068700
     64 H82         56.9350    28.4240     1.4750 hc         1 Y05       0.068700
     65 H85         60.0410    25.1950    -2.3730 ha         1 Y05       0.154000
     66 H71         50.8820    34.4800     8.0070 hc         1 Y05       0.048200
     67 H70         51.9500    35.8730     8.2350 hc         1 Y05       0.048200
     68 H69         51.5170    35.3460     6.5970 hc         1 Y05       0.048200
     69 H03         53.2080    33.7430     8.6220 h1         1 Y05       0.044200
     70 H72         52.3880    33.0980     5.7220 h1         1 Y05       0.052950
     71 H73         51.9660    32.1830     7.1740 h1         1 Y05       0.052950
     72 H74         55.1510    33.1180     5.1320 h1         1 Y05       0.052950
     73 H75         56.1300    32.2040     6.2940 h1         1 Y05       0.052950
     74 H08         55.5730    33.7600     8.1170 h1         1 Y05       0.044200
     75 H77         56.5350    35.9050     7.2560 hc         1 Y05       0.048200
     76 H78         57.4340    34.5260     6.6070 hc         1 Y05       0.048200
     77 H76         56.2670    35.3800     5.5830 hc         1 Y05       0.048200
     78 H79         52.6360    30.1030     7.8400 ha         1 Y05       0.120000
     79 H81         55.2210    30.7600     4.4570 ha         1 Y05       0.131000
     80 H20         56.3970    25.5720     2.3470 h1         1 Y05       0.110700
     81 H84         57.2270    28.1230    -0.9350 ha         1 Y05       0.132000
     82 H86         59.0410    25.3190     1.8170 ha         1 Y05       0.132000
     83 H89         54.8230    26.0200    -1.8640 h1         1 Y05       0.090200
     84 H88         53.3230    25.8210    -0.9280 h1         1 Y05       0.090200
     85 H90         51.2340    21.2760    -1.7040 h2         1 Y05       0.076700
     86 H42         55.0020    20.2120    -3.3090 hc         1 Y05       0.117700
     87 H92         55.9890    20.7150    -5.6330 hc         1 Y05       0.084200
     88 H91         55.2040    22.3650    -5.5950 hc         1 Y05       0.084200
     89 H45         57.3260    21.2950    -3.5440 hc         1 Y05       0.115700
     90 H93         56.0830    24.0980     4.5810 ha         1 Y05       0.128000
     91 H94         55.8820    21.7080     3.9110 ha         1 Y05       0.138000
     92 H96         50.4690    21.2760     3.8820 h1         1 Y05       0.105033
     93 H97         49.5590    22.7360     3.3170 h1         1 Y05       0.105033
     94 H98         48.6850    21.1900     3.6210 h1         1 Y05       0.105033
     95 H101        50.9050    26.5620     1.7410 h1         1 Y05       0.061700
     96 H99         51.5140    26.5500     3.4170 h1         1 Y05       0.061700
     97 H100        52.6230    26.9150     2.0560 h1         1 Y05       0.061700
     98 H87         54.6640    27.1990     0.5060 hn         1 Y05       0.326500
     99 H95         51.9520    20.9240     1.2990 hn         1 Y05       0.520000
    100 C31         55.1050    25.2350     0.1050 c          1 Y05       0.579100
    101 C65         51.7640    26.3150     2.3760 c3         1 Y05       0.080900
@<TRIPOS>BOND
     1     1    14 ar  
     2     1    15 ar  
     3     1    62 1   
     4     2    15 ar  
     5     2    16 ar  
     6     2    47 1   
     7     3     4 1   
     8     3    18 1   
     9     3    63 1   
    10     3    64 1   
    11     4    19 ar  
    12     4    21 ar  
    13     5     6 ar  
    14     5    19 ar  
    15     5    40 1   
    16     6    20 ar  
    17     6    65 1   
    18     7     8 1   
    19     7    66 1   
    20     7    67 1   
    21     7    68 1   
    22     8     9 1   
    23     8    55 1   
    24     8    69 1   
    25     9    46 1   
    26     9    70 1   
    27     9    71 1   
    28    10    11 1   
    29    10    46 1   
    30    10    72 1   
    31    10    73 1   
    32    11    12 1   
    33    11    55 1   
    34    11    74 1   
    35    12    75 1   
    36    12    76 1   
    37    12    77 1   
    38    13    14 ar  
    39    13    16 ar  
    40    13    46 1   
    41    14    78 1   
    42    15    39 1   
    43    16    79 1   
    44    17    18 1   
    45    17    47 2   
    46    17    51 1   
    47    18    48 1   
    48    18    80 1   
    49    19    81 1   
    50    20    21 ar  
    51    20    41 1   
    52    21    82 1   
    53    22    49 1   
    54    22    83 1   
    55    22    84 1   
    56    22   100 1   
    57    23    24 1   
    58    23    25 1   
    59    23    50 2   
    60    24    42 1   
    61    24    43 1   
    62    24    85 1   
    63    25    26 1   
    64    25    30 2   
    65    26    27 1   
    66    26    28 1   
    67    26    86 1   
    68    27    28 1   
    69    27    87 1   
    70    27    88 1   
    71    28    29 1   
    72    28    89 1   
    73    29    30 1   
    74    29    44 1   
    75    29    45 1   
    76    30    49 1   
    77    31    32 ar  
    78    31    38 ar  
    79    31    51 1   
    80    32    33 ar  
    81    32    90 1   
    82    33    34 ar  
    83    33    91 1   
    84    34    35 ar  
    85    34    61 1   
    86    35    36 1   
    87    35    38 ar  
    88    36    52 1   
    89    36    53 2   
    90    37    60 1   
    91    37    92 1   
    92    37    93 1   
    93    37    94 1   
    94    38    54 1   
    95    39    51 1   
    96    39    59 2   
    97    48    98 1   
    98    48   100 1   
    99    49    50 1   
   100    52    60 1   
   101    52    99 1   
   102    53    54 1   
   103    54   101 1   
   104    56   100 2   
   105    57    60 2   
   106    58    60 2   
   107    95   101 1   
   108    96   101 1   
   109    97   101 1   
@<TRIPOS>SUBSTRUCTURE
     1 Y05         1 TEMP              0 ****  ****    0 ROOT
