@<TRIPOS>MOLECULE
Y06
   33    34     1     0     0
SMALL
abcg2


@<TRIPOS>ATOM
      1 OAS         21.2790    14.6880    -9.0380 o          1 Y06      -0.907833
      2 PAR         21.9950    13.7260    -9.9780 p5         1 Y06       1.202000
      3 OAU         21.3730    13.6250   -11.3680 o          1 Y06      -0.907833
      4 OAT         22.2560    12.3520    -9.3310 o          1 Y06      -0.907833
      5 CAM         23.6840    14.4570   -10.2220 ca         1 Y06      -0.141500
      6 CAN         23.9890    15.7390    -9.7630 ca         1 Y06      -0.055000
      7 CAO         25.2580    16.2970    -9.9080 ca         1 Y06      -0.180000
      8 CAP         26.2620    15.5650   -10.5300 ca         1 Y06      -0.134000
      9 CAQ         25.9920    14.2830   -11.0050 ca         1 Y06      -0.220000
     10 CAL         24.7160    13.7460   -10.8500 ca         1 Y06       0.153100
     11 OAK         24.3990    12.5000   -11.3330 os         1 Y06      -0.324100
     12 CAA         25.3690    11.4760   -11.2940 c3         1 Y06       0.097600
     13 CAB         24.7310    10.1240   -11.0000 c          1 Y06       0.591100
     14 OAD         25.3630     9.1100   -11.2990 o          1 Y06      -0.690100
     15 NAC         23.5260    10.1560   -10.3920 ns         1 Y06      -0.123000
     16 CAE         22.7510     9.0510   -10.0050 ca         1 Y06       0.020000
     17 CAF         23.0290     7.7340   -10.3930 ca         1 Y06      -0.170000
     18 CAG         22.1840     6.7200    -9.9680 ca         1 Y06       0.138000
     19 CL1         22.5470     5.0730   -10.4640 cl         1 Y06      -0.295000
     20 CAH         21.0730     6.9500    -9.1730 ca         1 Y06      -0.176000
     21 CAI         20.8080     8.2650    -8.7980 ca         1 Y06      -0.105000
     22 CAJ         21.6280     9.3050    -9.2030 ca         1 Y06      -0.117000
     23 H3          23.2070    16.2950    -9.2620 ha         1 Y06       0.135000
     24 H4          25.4610    17.2940    -9.5350 ha         1 Y06       0.069000
     25 H5          27.2530    15.9820   -10.6530 ha         1 Y06       0.062000
     26 H6          26.7680    13.7150   -11.5010 ha         1 Y06       0.076000
     27 H7          25.8960    11.3880   -12.2480 h1         1 Y06       0.037200
     28 H8          26.1120    11.6650   -10.5120 h1         1 Y06       0.037200
     29 H9          23.1300    11.0870   -10.1080 hn         1 Y06       0.280000
     30 H10         23.8840     7.5150   -11.0080 ha         1 Y06       0.150000
     31 H11         20.4380     6.1350    -8.8570 ha         1 Y06       0.096000
     32 H12         19.9460     8.4760    -8.1770 ha         1 Y06       0.100000
     33 H13         21.4240    10.3280    -8.9160 ha         1 Y06       0.212000
@<TRIPOS>BOND
     1     1     2 1   
     2     2     3 1   
     3     2     4 1   
     4     2     5 1   
     5     5     6 ar  
     6     5    10 ar  
     7     6     7 ar  
     8     6    23 1   
     9     7     8 ar  
    10     7    24 1   
    11     8     9 ar  
    12     8    25 1   
    13     9    10 ar  
    14     9    26 1   
    15    10    11 1   
    16    11    12 1   
    17    12    13 1   
    18    12    27 1   
    19    12    28 1   
    20    13    14 2   
    21    13    15 1   
    22    15    16 1   
    23    15    29 1   
    24    16    17 ar  
    25    16    22 ar  
    26    17    18 ar  
    27    17    30 1   
    28    18    19 1   
    29    18    20 ar  
    30    20    21 ar  
    31    20    31 1   
    32    21    22 ar  
    33    21    32 1   
    34    22    33 1   
@<TRIPOS>SUBSTRUCTURE
     1 Y06         1 TEMP              0 ****  ****    0 ROOT
