@<TRIPOS>MOLECULE
Y06
   33    34     1     0     0
SMALL
No Charge or Current Charge


@<TRIPOS>ATOM
      1 OAS         21.3420    15.0150    -8.8010 o          1 Y06      -0.907833
      2 PAR         22.0600    14.0030    -9.6320 p5         1 Y06       1.202000
      3 OAU         21.2980    13.7690   -10.8940 o          1 Y06      -0.907833
      4 OAT         22.1820    12.7150    -8.8870 o          1 Y06      -0.907833
      5 CAM         23.7260    14.6430   -10.0800 ca         1 Y06      -0.141500
      6 CAN         24.0150    16.0130    -9.9050 ca         1 Y06      -0.055000
      7 CAO         25.2810    16.5230   -10.2390 ca         1 Y06      -0.180000
      8 CAP         26.2700    15.6720   -10.7510 ca         1 Y06      -0.134000
      9 CAQ         25.9930    14.3080   -10.9330 ca         1 Y06      -0.220000
     10 CAL         24.7200    13.7880   -10.6010 ca         1 Y06       0.153100
     11 OAK         24.4240    12.4530   -10.7730 os         1 Y06      -0.324100
     12 CAA         25.4120    11.4590   -11.1170 c3         1 Y06       0.097600
     13 CAB         24.8060    10.0380   -11.0660 c          1 Y06       0.591100
     14 OAD         25.3490     9.0830   -11.6210 o          1 Y06      -0.690100
     15 NAC         23.6210     9.9500   -10.3460 ns         1 Y06      -0.123000
     16 CAE         22.7640     8.8570   -10.0290 ca         1 Y06       0.020000
     17 CAF         23.0710     7.5130   -10.3370 ca         1 Y06      -0.170000
     18 CAG         22.1810     6.4840    -9.9910 ca         1 Y06       0.138000
     19 Cl1         22.5780     4.8160   -10.3820 cl         1 Y06      -0.295000
     20 CAH         20.9780     6.7770    -9.3340 ca         1 Y06      -0.176000
     21 CAI         20.6630     8.1070    -9.0190 ca         1 Y06      -0.105000
     22 CAJ         21.5530     9.1400    -9.3640 ca         1 Y06      -0.117000
     23 H3          23.2560    16.6850    -9.5090 ha         1 Y06       0.135000
     24 H4          25.4940    17.5800   -10.0990 ha         1 Y06       0.069000
     25 H5          27.2490    16.0680   -11.0100 ha         1 Y06       0.062000
     26 H6          26.7730    13.6710   -11.3380 ha         1 Y06       0.076000
     27 H7          25.8040    11.6340   -12.1260 h1         1 Y06       0.037200
     28 H8          26.2430    11.4870   -10.4000 h1         1 Y06       0.037200
     29 H9          23.3110    10.8450    -9.9820 hn         1 Y06       0.280000
     30 H10         23.9940     7.2420   -10.8380 ha         1 Y06       0.150000
     31 H11         20.2920     5.9760    -9.0690 ha         1 Y06       0.096000
     32 H12         19.7310     8.3400    -8.5070 ha         1 Y06       0.100000
     33 H13         21.2950    10.1690    -9.1120 ha         1 Y06       0.212000
@<TRIPOS>BOND
     1     1     2 1   
     2     2     3 1   
     3     2     4 1   
     4     2     5 1   
     5     5     6 ar  
     6     5    10 ar  
     7     6     7 ar  
     8     6    23 1   
     9     7     8 ar  
    10     7    24 1   
    11     8     9 ar  
    12     8    25 1   
    13     9    10 ar  
    14     9    26 1   
    15    10    11 1   
    16    11    12 1   
    17    12    13 1   
    18    12    27 1   
    19    12    28 1   
    20    13    14 2   
    21    13    15 1   
    22    15    16 1   
    23    15    29 1   
    24    16    17 ar  
    25    16    22 ar  
    26    17    18 ar  
    27    17    30 1   
    28    18    19 1   
    29    18    20 ar  
    30    20    21 ar  
    31    20    31 1   
    32    21    22 ar  
    33    21    32 1   
    34    22    33 1   
@<TRIPOS>SUBSTRUCTURE
     1 Y06         1 TEMP              0 ****  ****    0 ROOT
