@<TRIPOS>MOLECULE
Y07
   36    37     1     0     0
SMALL
No Charge or Current Charge


@<TRIPOS>ATOM
      1 OAI         21.4970    12.9820   -11.9370 o          1 Y07      -0.892167
      2 PAG         21.6740    13.9290   -10.7970 p5         1 Y07       1.200000
      3 OAJ         20.7320    15.0770   -10.9580 o          1 Y07      -0.892167
      4 OAH         21.4080    13.2190    -9.5110 o          1 Y07      -0.892167
      5 CAC         23.4060    14.5480   -10.8540 ca         1 Y07      -0.145500
      6 CAD         23.6510    15.8260   -11.4010 ca         1 Y07      -0.055000
      7 CAE         24.9580    16.3340   -11.4740 ca         1 Y07      -0.181000
      8 CAF         26.0350    15.5700   -11.0070 ca         1 Y07      -0.133000
      9 CAA         25.8060    14.2950   -10.4670 ca         1 Y07      -0.221000
     10 CAB         24.4920    13.7740   -10.3870 ca         1 Y07       0.153100
     11 OAK         24.2510    12.5210    -9.8590 os         1 Y07      -0.325100
     12 CAL         25.2890    11.7170    -9.2540 c3         1 Y07       0.100600
     13 CAM         24.7260    10.4310    -8.6060 c          1 Y07       0.582100
     14 OAO         25.4390     9.6700    -7.9520 o          1 Y07      -0.707100
     15 NAN         23.3800    10.1950    -8.8350 ns         1 Y07      -0.149000
     16 CAP         22.5150     9.1750    -8.3500 ca         1 Y07       0.039000
     17 CAU         22.7500     8.5240    -7.1170 ca         1 Y07      -0.070000
     18 CAQ         21.8740     7.5210    -6.6440 ca         1 Y07      -0.199300
     19 CAW         22.1480     6.8390    -5.2970 c3         1 Y07       0.342300
     20 FAY         21.5360     5.6370    -5.1860 f          1 Y07      -0.128000
     21 FAZ         21.7150     7.5980    -4.2660 f          1 Y07      -0.128000
     22 FAX         23.4680     6.6180    -5.0980 f          1 Y07      -0.128000
     23 CAR         20.7400     7.1830    -7.4120 ca         1 Y07      -0.104000
     24 CAS         20.4950     7.8290    -8.6330 ca         1 Y07      -0.120000
     25 CAT         21.3730     8.8200    -9.1000 ca         1 Y07       0.147000
     26 Cl1         21.0360     9.5870   -10.6500 cl         1 Y07      -0.150000
     27 H3          22.8240    16.4290   -11.7720 ha         1 Y07       0.135000
     28 H4          25.1340    17.3210   -11.8950 ha         1 Y07       0.069000
     29 H5          27.0470    15.9630   -11.0660 ha         1 Y07       0.062000
     30 H6          26.6620    13.7250   -10.1200 ha         1 Y07       0.076000
     31 H7          26.0290    11.4190   -10.0080 h1         1 Y07       0.038200
     32 H8          25.7980    12.2840    -8.4630 h1         1 Y07       0.038200
     33 H9          22.9340    10.8920    -9.4220 hn         1 Y07       0.290000
     34 H10         23.6040     8.8060    -6.5090 ha         1 Y07       0.134000
     35 H11         20.0420     6.4240    -7.0660 ha         1 Y07       0.101000
     36 H12         19.6210     7.5610    -9.2210 ha         1 Y07       0.111000
@<TRIPOS>BOND
     1     1     2 1   
     2     2     3 1   
     3     2     4 1   
     4     2     5 1   
     5     5     6 ar  
     6     5    10 ar  
     7     6     7 ar  
     8     6    27 1   
     9     7     8 ar  
    10     7    28 1   
    11     8     9 ar  
    12     8    29 1   
    13     9    10 ar  
    14     9    30 1   
    15    10    11 1   
    16    11    12 1   
    17    12    13 1   
    18    12    31 1   
    19    12    32 1   
    20    13    14 2   
    21    13    15 1   
    22    15    16 1   
    23    15    33 1   
    24    16    17 ar  
    25    16    25 ar  
    26    17    18 ar  
    27    17    34 1   
    28    18    19 1   
    29    18    23 ar  
    30    19    20 1   
    31    19    21 1   
    32    19    22 1   
    33    23    24 ar  
    34    23    35 1   
    35    24    25 ar  
    36    24    36 1   
    37    25    26 1   
@<TRIPOS>SUBSTRUCTURE
     1 Y07         1 TEMP              0 ****  ****    0 ROOT
