@<TRIPOS>MOLECULE
Y07
   36    37     1     0     0
SMALL
abcg2


@<TRIPOS>ATOM
      1 OAI         21.7820    12.7790   -12.2890 o          1 Y07      -0.892167
      2 PAG         21.7620    13.3770   -10.8850 p5         1 Y07       1.200000
      3 OAJ         20.7180    14.4700   -10.6870 o          1 Y07      -0.892167
      4 OAH         21.7170    12.3140    -9.7700 o          1 Y07      -0.892167
      5 CAC         23.4040    14.2180   -10.6630 ca         1 Y07      -0.145500
      6 CAD         23.4920    15.6070   -10.5460 ca         1 Y07      -0.055000
      7 CAE         24.7070    16.2620   -10.3540 ca         1 Y07      -0.181000
      8 CAF         25.8800    15.5210   -10.2800 ca         1 Y07      -0.133000
      9 CAA         25.8320    14.1340   -10.4000 ca         1 Y07      -0.221000
     10 CAB         24.6060    13.4990   -10.5880 ca         1 Y07       0.153100
     11 OAK         24.5220    12.1370   -10.7420 os         1 Y07      -0.325100
     12 CAL         25.3950    11.2950   -10.0150 c3         1 Y07       0.100600
     13 CAM         24.6460    10.1280    -9.3890 c          1 Y07       0.582100
     14 OAO         25.2920     9.1640    -8.9740 o          1 Y07      -0.707100
     15 NAN         23.3090    10.2540    -9.3130 ns         1 Y07      -0.149000
     16 CAP         22.5100     9.2990    -8.6530 ca         1 Y07       0.039000
     17 CAU         22.6950     9.0310    -7.2990 ca         1 Y07      -0.070000
     18 CAQ         21.8760     8.1270    -6.6370 ca         1 Y07      -0.199300
     19 CAW         22.0660     7.9010    -5.1660 c3         1 Y07       0.342300
     20 FAY         21.6610     6.6740    -4.7740 f          1 Y07      -0.128000
     21 FAZ         21.3580     8.7870    -4.4170 f          1 Y07      -0.128000
     22 FAX         23.3550     8.0300    -4.7870 f          1 Y07      -0.128000
     23 CAR         20.8440     7.4810    -7.3140 ca         1 Y07      -0.104000
     24 CAS         20.6500     7.7350    -8.6620 ca         1 Y07      -0.120000
     25 CAT         21.4830     8.6300    -9.3240 ca         1 Y07       0.147000
     26 CL1         21.2440     8.8920   -11.0290 cl         1 Y07      -0.150000
     27 H3          22.5730    16.1770   -10.5900 ha         1 Y07       0.135000
     28 H4          24.7360    17.3410   -10.2620 ha         1 Y07       0.069000
     29 H5          26.8340    16.0120   -10.1350 ha         1 Y07       0.062000
     30 H6          26.7460    13.5560   -10.3600 ha         1 Y07       0.076000
     31 H7          26.1730    10.8870   -10.6640 h1         1 Y07       0.038200
     32 H8          25.8810    11.8360    -9.1990 h1         1 Y07       0.038200
     33 H9          22.7970    11.1270    -9.6450 hn         1 Y07       0.290000
     34 H10         23.4850     9.5470    -6.7740 ha         1 Y07       0.134000
     35 H11         20.2000     6.7820    -6.8020 ha         1 Y07       0.101000
     36 H12         19.8610     7.2350    -9.2060 ha         1 Y07       0.111000
@<TRIPOS>BOND
     1     1     2 1   
     2     2     3 1   
     3     2     4 1   
     4     2     5 1   
     5     5     6 ar  
     6     5    10 ar  
     7     6     7 ar  
     8     6    27 1   
     9     7     8 ar  
    10     7    28 1   
    11     8     9 ar  
    12     8    29 1   
    13     9    10 ar  
    14     9    30 1   
    15    10    11 1   
    16    11    12 1   
    17    12    13 1   
    18    12    31 1   
    19    12    32 1   
    20    13    14 2   
    21    13    15 1   
    22    15    16 1   
    23    15    33 1   
    24    16    17 ar  
    25    16    25 ar  
    26    17    18 ar  
    27    17    34 1   
    28    18    19 1   
    29    18    23 ar  
    30    19    20 1   
    31    19    21 1   
    32    19    22 1   
    33    23    24 ar  
    34    23    35 1   
    35    24    25 ar  
    36    24    36 1   
    37    25    26 1   
@<TRIPOS>SUBSTRUCTURE
     1 Y07         1 TEMP              0 ****  ****    0 ROOT
