@<TRIPOS>MOLECULE
Y08
   68    69     1     0     0
SMALL
No Charge or Current Charge


@<TRIPOS>ATOM
      1 N1         -25.2770    -3.7610   -11.9210 ns         1 Y08      -0.492900
      2 O1         -25.6370     2.2320   -14.7930 oh         1 Y08      -0.718000
      3 N2         -28.0130    -4.2800    -7.7490 n          1 Y08      -0.402800
      4 O2         -26.0300    -1.9450   -14.0030 oh         1 Y08      -0.727000
      5 O3         -24.3640    -0.1540   -15.3870 oh         1 Y08      -0.668000
      6 O4         -23.1690    -3.5200   -11.1110 o          1 Y08      -0.597100
      7 O5         -30.0880    -5.0640    -8.3970 o          1 Y08      -0.620100
      8 O6         -22.5940    -1.3240   -12.8440 os         1 Y08      -0.450000
      9 C01        -27.6770     1.3380   -10.4360 c3         1 Y08      -0.017800
     10 C04        -25.9620     1.0840   -14.0070 c3         1 Y08       0.204500
     11 C05        -24.7380     0.1170   -14.0150 c3         1 Y08       0.119300
     12 C06        -25.0150    -1.2290   -13.2690 c3         1 Y08       0.157300
     13 C07        -23.7670    -2.1550   -13.0810 c3         1 Y08       0.086300
     14 C08        -28.8070     0.4030    -9.9320 c3         1 Y08      -0.083433
     15 C09        -26.4380     1.1800    -9.5190 c3         1 Y08      -0.083433
     16 C10        -28.1760     2.8040   -10.3990 c3         1 Y08      -0.083433
     17 C11        -24.0090    -3.2140   -11.9510 c          1 Y08       0.566100
     18 C12        -25.7910    -4.6750   -10.8980 c3         1 Y08       0.103000
     19 C13        -26.5730    -3.9470    -9.7660 c6         1 Y08      -0.111700
     20 C14        -25.6780    -2.9750    -8.9410 c6         1 Y08      -0.070400
     21 C15        -26.4670    -2.3310    -7.7730 c6         1 Y08      -0.103400
     22 C16        -27.1480    -3.4120    -6.9040 c6         1 Y08       0.104000
     23 C17        -27.2570    -4.9740    -8.8240 c6         1 Y08       0.092000
     24 C19        -30.0800    -3.4700    -6.6110 cx         1 Y08      -0.239700
     25 C20        -31.4400    -2.8590    -6.8940 cx         1 Y08      -0.099400
     26 C21        -30.2110    -1.9830    -6.8810 cx         1 Y08      -0.099400
     27 HN1        -25.9160    -3.4200   -12.6370 hn         1 Y08       0.321500
     28 HO1        -25.1200     1.8580   -15.5470 ho         1 Y08       0.518000
     29 HO2        -25.8920    -1.6840   -14.9460 ho         1 Y08       0.514000
     30 HO3        -23.4260    -0.4550   -15.3760 ho         1 Y08       0.456000
     31 H02        -27.8650     0.1110   -12.2690 ha         1 Y08       0.164000
     32 H03        -25.7650     2.3690   -12.2360 ha         1 Y08       0.186000
     33 H04        -26.8180     0.5630   -14.4610 h1         1 Y08       0.052700
     34 H05        -23.9210     0.6390   -13.4970 h1         1 Y08       0.065700
     35 H06        -25.3830    -0.9810   -12.2630 h1         1 Y08       0.064700
     36 H07        -23.6360    -2.7200   -14.0140 h1         1 Y08       0.061700
     37 H08        -29.0790     0.6380    -8.8960 hc         1 Y08       0.036700
     38 H08A       -29.7070     0.5080   -10.5500 hc         1 Y08       0.036700
     39 H08B       -28.4920    -0.6470    -9.9710 hc         1 Y08       0.036700
     40 H09        -26.6940     1.3880    -8.4720 hc         1 Y08       0.036700
     41 H09A       -26.0410     0.1600    -9.5760 hc         1 Y08       0.036700
     42 H09B       -25.6370     1.8690    -9.8120 hc         1 Y08       0.036700
     43 H10        -28.4790     3.0890    -9.3850 hc         1 Y08       0.036700
     44 H10A       -27.3910     3.4980   -10.7230 hc         1 Y08       0.036700
     45 H10B       -29.0400     2.9370   -11.0620 hc         1 Y08       0.036700
     46 H12        -26.4640    -5.3890   -11.3910 h1         1 Y08       0.063200
     47 H12A       -24.9620    -5.2480   -10.4610 h1         1 Y08       0.063200
     48 H13        -27.3620    -3.3620   -10.2590 hc         1 Y08       0.060700
     49 H14        -24.8110    -3.5180    -8.5400 hc         1 Y08       0.048700
     50 H14A       -25.2770    -2.1820    -9.5870 hc         1 Y08       0.048700
     51 H15        -25.7940    -1.7230    -7.1540 hc         1 Y08       0.048200
     52 H15A       -27.2310    -1.6490    -8.1690 hc         1 Y08       0.048200
     53 H16        -27.7050    -2.9330    -6.0900 h1         1 Y08       0.052700
     54 H16A       -26.3760    -4.0360    -6.4330 h1         1 Y08       0.052700
     55 H17        -26.4950    -5.6200    -8.3640 h1         1 Y08       0.065200
     56 H17A       -27.9210    -5.6250    -9.4100 h1         1 Y08       0.065200
     57 H19        -29.8930    -3.7760    -5.5850 hc         1 Y08       0.086700
     58 H20        -31.9070    -3.0560    -7.8560 hc         1 Y08       0.081450
     59 H20A       -32.1370    -2.7650    -6.0640 hc         1 Y08       0.081450
     60 H21        -30.0810    -1.3010    -6.0440 hc         1 Y08       0.081450
     61 H21A       -29.8530    -1.6040    -7.8360 hc         1 Y08       0.081450
     62 H22        -20.5060    -1.2270   -12.9340 h1         1 Y08       0.041033
     63 H22A       -21.1480    -2.8150   -12.4770 h1         1 Y08       0.041033
     64 H22B       -21.2570    -2.2620   -14.1640 h1         1 Y08       0.041033
     65 C18        -29.4240    -4.3410    -7.6650 c          1 Y08       0.634100
     66 C22        -21.3190    -1.9400   -13.1160 c3         1 Y08       0.140900
     67 C03        -26.3510     1.5320   -12.6170 c2         1 Y08      -0.223200
     68 C02        -27.3040     0.9550   -11.8620 c2         1 Y08      -0.201200
@<TRIPOS>BOND
     1     1    17 1   
     2     1    18 1   
     3     1    27 1   
     4     2    10 1   
     5     2    28 1   
     6     3    22 1   
     7     3    23 1   
     8     3    65 1   
     9     4    12 1   
    10     4    29 1   
    11     5    11 1   
    12     5    30 1   
    13     6    17 2   
    14     7    65 2   
    15     8    13 1   
    16     8    66 1   
    17     9    14 1   
    18     9    15 1   
    19     9    16 1   
    20     9    68 1   
    21    10    11 1   
    22    10    33 1   
    23    10    67 1   
    24    11    12 1   
    25    11    34 1   
    26    12    13 1   
    27    12    35 1   
    28    13    17 1   
    29    13    36 1   
    30    14    37 1   
    31    14    38 1   
    32    14    39 1   
    33    15    40 1   
    34    15    41 1   
    35    15    42 1   
    36    16    43 1   
    37    16    44 1   
    38    16    45 1   
    39    18    19 1   
    40    18    46 1   
    41    18    47 1   
    42    19    20 1   
    43    19    23 1   
    44    19    48 1   
    45    20    21 1   
    46    20    49 1   
    47    20    50 1   
    48    21    22 1   
    49    21    51 1   
    50    21    52 1   
    51    22    53 1   
    52    22    54 1   
    53    23    55 1   
    54    23    56 1   
    55    24    25 1   
    56    24    26 1   
    57    24    57 1   
    58    24    65 1   
    59    25    26 1   
    60    25    58 1   
    61    25    59 1   
    62    26    60 1   
    63    26    61 1   
    64    31    68 1   
    65    32    67 1   
    66    62    66 1   
    67    63    66 1   
    68    64    66 1   
    69    67    68 2   
@<TRIPOS>SUBSTRUCTURE
     1 Y08         1 TEMP              0 ****  ****    0 ROOT
