@<TRIPOS>MOLECULE
Y08
   68    69     1     0     0
SMALL
abcg2


@<TRIPOS>ATOM
      1 N1         -25.1360    -3.9500   -11.5350 ns         1 Y08      -0.492900
      2 O1         -25.0480     2.1990   -14.9310 oh         1 Y08      -0.718000
      3 N2         -28.1140    -4.4190    -7.6150 n          1 Y08      -0.402800
      4 O2         -26.2890    -1.2930   -12.7660 oh         1 Y08      -0.727000
      5 O3         -24.6850    -0.5260   -15.2510 oh         1 Y08      -0.668000
      6 O4         -23.3050    -2.8080   -10.8230 o          1 Y08      -0.597100
      7 O5         -29.4160    -6.1100    -8.3750 o          1 Y08      -0.620100
      8 O6         -22.8540    -2.0160   -13.4660 os         1 Y08      -0.450000
      9 C01        -26.7260     2.6110   -10.4640 c3         1 Y08      -0.017800
     10 C04        -25.5020     1.2660   -13.9390 c3         1 Y08       0.204500
     11 C05        -24.5780     0.0460   -13.9440 c3         1 Y08       0.119300
     12 C06        -24.9040    -0.9560   -12.8290 c3         1 Y08       0.157300
     13 C07        -24.1630    -2.2880   -13.0170 c3         1 Y08       0.086300
     14 C08        -27.1800     1.4650    -9.5390 c3         1 Y08      -0.083433
     15 C09        -25.4060     3.1900    -9.9480 c3         1 Y08      -0.083433
     16 C10        -27.8040     3.7090   -10.4730 c3         1 Y08      -0.083433
     17 C11        -24.1530    -3.0500   -11.6800 c          1 Y08       0.566100
     18 C12        -25.4250    -4.6470   -10.2920 c3         1 Y08       0.103000
     19 C13        -26.6350    -4.0680    -9.5560 c6         1 Y08      -0.111700
     20 C14        -26.4310    -2.6140    -9.1220 c6         1 Y08      -0.070400
     21 C15        -27.6150    -2.1120    -8.2950 c6         1 Y08      -0.103400
     22 C16        -27.9150    -3.0530    -7.1280 c6         1 Y08       0.104000
     23 C17        -26.9530    -4.9360    -8.3350 c6         1 Y08       0.092000
     24 C19        -30.4880    -4.4960    -7.0120 cx         1 Y08      -0.239700
     25 C20        -31.6650    -5.4070    -6.7580 cx         1 Y08      -0.099400
     26 C21        -31.7700    -4.3610    -7.8150 cx         1 Y08      -0.099400
     27 HN1        -25.8080    -4.0380   -12.2820 hn         1 Y08       0.321500
     28 HO1        -24.8550     1.6790   -15.7250 ho         1 Y08       0.518000
     29 HO2        -26.7380    -0.6380   -12.2170 ho         1 Y08       0.514000
     30 HO3        -23.8980    -1.0660   -15.3970 ho         1 Y08       0.456000
     31 H02        -27.5450     1.6580   -12.2590 ha         1 Y08       0.164000
     32 H03        -24.5590     2.3180   -12.2580 ha         1 Y08       0.186000
     33 H04        -26.5130     0.9300   -14.1910 h1         1 Y08       0.052700
     34 H05        -23.5550     0.3970   -13.7800 h1         1 Y08       0.065700
     35 H06        -24.5860    -0.5040   -11.8860 h1         1 Y08       0.064700
     36 H07        -24.7020    -2.8700   -13.7740 h1         1 Y08       0.061700
     37 H08        -27.3410     1.8370    -8.5240 hc         1 Y08       0.036700
     38 H08A       -28.1150     1.0240    -9.8920 hc         1 Y08       0.036700
     39 H08B       -26.4270     0.6760    -9.5010 hc         1 Y08       0.036700
     40 H09        -25.5430     3.5800    -8.9380 hc         1 Y08       0.036700
     41 H09A       -24.6250     2.4280    -9.9130 hc         1 Y08       0.036700
     42 H09B       -25.0570     4.0080   -10.5820 hc         1 Y08       0.036700
     43 H10        -27.9580     4.0970    -9.4640 hc         1 Y08       0.036700
     44 H10A       -27.5080     4.5380   -11.1190 hc         1 Y08       0.036700
     45 H10B       -28.7560     3.3160   -10.8360 hc         1 Y08       0.036700
     46 H12        -25.6040    -5.6990   -10.5220 h1         1 Y08       0.063200
     47 H12A       -24.5360    -4.5840    -9.6660 h1         1 Y08       0.063200
     48 H13        -27.4990    -4.1150   -10.2290 hc         1 Y08       0.060700
     49 H14        -25.5180    -2.5500    -8.5200 hc         1 Y08       0.048700
     50 H14A       -26.2850    -1.9750    -9.9940 hc         1 Y08       0.048700
     51 H15        -27.4110    -1.1140    -7.9050 hc         1 Y08       0.048200
     52 H15A       -28.5070    -2.0390    -8.9260 hc         1 Y08       0.048200
     53 H16        -28.7840    -2.7110    -6.5780 h1         1 Y08       0.052700
     54 H16A       -27.0680    -3.0660    -6.4350 h1         1 Y08       0.052700
     55 H17        -26.1000    -4.9300    -7.6500 h1         1 Y08       0.065200
     56 H17A       -27.1570    -5.9620    -8.6270 h1         1 Y08       0.065200
     57 H19        -30.3180    -3.7350    -6.2690 hc         1 Y08       0.086700
     58 H20        -31.5570    -6.4330    -7.0790 hc         1 Y08       0.081450
     59 H20A       -32.1980    -5.2570    -5.8290 hc         1 Y08       0.081450
     60 H21        -32.3750    -3.4840    -7.6290 hc         1 Y08       0.081450
     61 H21A       -31.7250    -4.6860    -8.8460 hc         1 Y08       0.081450
     62 H22        -21.1750    -2.8510   -14.2400 h1         1 Y08       0.041033
     63 H22A       -21.9760    -3.8530   -13.0060 h1         1 Y08       0.041033
     64 H22B       -22.6790    -3.7230   -14.6410 h1         1 Y08       0.041033
     65 C18        -29.3030    -5.0660    -7.7190 c          1 Y08       0.634100
     66 C22        -22.1380    -3.1840   -13.8560 c3         1 Y08       0.140900
     67 C03        -25.5160     1.9450   -12.6070 c2         1 Y08      -0.223200
     68 C02        -26.6090     2.0460   -11.8570 c2         1 Y08      -0.201200
@<TRIPOS>BOND
     1     1    17 1   
     2     1    18 1   
     3     1    27 1   
     4     2    10 1   
     5     2    28 1   
     6     3    22 1   
     7     3    23 1   
     8     3    65 1   
     9     4    12 1   
    10     4    29 1   
    11     5    11 1   
    12     5    30 1   
    13     6    17 2   
    14     7    65 2   
    15     8    13 1   
    16     8    66 1   
    17     9    14 1   
    18     9    15 1   
    19     9    16 1   
    20     9    68 1   
    21    10    11 1   
    22    10    33 1   
    23    10    67 1   
    24    11    12 1   
    25    11    34 1   
    26    12    13 1   
    27    12    35 1   
    28    13    17 1   
    29    13    36 1   
    30    14    37 1   
    31    14    38 1   
    32    14    39 1   
    33    15    40 1   
    34    15    41 1   
    35    15    42 1   
    36    16    43 1   
    37    16    44 1   
    38    16    45 1   
    39    18    19 1   
    40    18    46 1   
    41    18    47 1   
    42    19    20 1   
    43    19    23 1   
    44    19    48 1   
    45    20    21 1   
    46    20    49 1   
    47    20    50 1   
    48    21    22 1   
    49    21    51 1   
    50    21    52 1   
    51    22    53 1   
    52    22    54 1   
    53    23    55 1   
    54    23    56 1   
    55    24    25 1   
    56    24    26 1   
    57    24    57 1   
    58    24    65 1   
    59    25    26 1   
    60    25    58 1   
    61    25    59 1   
    62    26    60 1   
    63    26    61 1   
    64    31    68 1   
    65    32    67 1   
    66    62    66 1   
    67    63    66 1   
    68    64    66 1   
    69    67    68 2   
@<TRIPOS>SUBSTRUCTURE
     1 Y08         1 TEMP              0 ****  ****    0 ROOT
