@<TRIPOS>MOLECULE
Y09
   37    38     1     0     0
SMALL
No Charge or Current Charge


@<TRIPOS>ATOM
      1 OAS         21.7790    14.7110    -7.9290 o          1 Y09      -0.910167
      2 PAR         22.2580    13.7470    -8.9640 p5         1 Y09       1.195000
      3 OAU         21.1890    13.5450    -9.9860 o          1 Y09      -0.910167
      4 OAT         22.5870    12.4350    -8.3330 o          1 Y09      -0.910167
      5 CAM         23.7390    14.4360    -9.8120 ca         1 Y09      -0.138500
      6 CAN         24.0620    15.8000    -9.6480 ca         1 Y09      -0.057000
      7 CAO         25.1880    16.3490   -10.2850 ca         1 Y09      -0.181000
      8 CAP         26.0000    15.5430   -11.0930 ca         1 Y09      -0.134000
      9 CAQ         25.6870    14.1860   -11.2680 ca         1 Y09      -0.220000
     10 CAL         24.5550    13.6270   -10.6300 ca         1 Y09       0.154100
     11 OAK         24.2270    12.2970   -10.7890 os         1 Y09      -0.325100
     12 CAA         25.0780    11.3450   -11.4620 c3         1 Y09       0.094600
     13 CAB         24.5140     9.9110   -11.3380 c          1 Y09       0.593100
     14 OAD         24.8790     9.0070   -12.0900 o          1 Y09      -0.693100
     15 NAC         23.5840     9.7540   -10.3180 ns         1 Y09      -0.122000
     16 CAE         22.8550     8.6290    -9.8400 ca         1 Y09       0.039000
     17 CAF         21.8850     8.8520    -8.8430 ca         1 Y09      -0.203000
     18 CAJ         23.0650     7.3120   -10.3050 ca         1 Y09      -0.204000
     19 CAI         22.3140     6.2440    -9.7860 ca         1 Y09      -0.091000
     20 CAH         21.3480     6.4810    -8.7980 ca         1 Y09      -0.208000
     21 CAG         21.1280     7.7810    -8.3210 ca         1 Y09       0.134100
     22 OAV         20.1670     7.9520    -7.3460 os         1 Y09      -0.387100
     23 CAW         19.8600     9.2420    -6.7830 c3         1 Y09       0.145900
     24 H4          23.4380    16.4370    -9.0240 ha         1 Y09       0.134000
     25 H5          25.4280    17.4010   -10.1510 ha         1 Y09       0.068000
     26 H6          26.8710    15.9690   -11.5860 ha         1 Y09       0.061000
     27 H7          26.3300    13.5850   -11.9040 ha         1 Y09       0.076000
     28 H8          25.1690    11.5920   -12.5270 h1         1 Y09       0.035700
     29 H9          26.0780    11.3450   -11.0090 h1         1 Y09       0.035700
     30 H10         21.7270     9.8650    -8.4830 ha         1 Y09       0.214000
     31 H11         23.8090     7.0920   -11.0630 ha         1 Y09       0.131000
     32 H12         22.4820     5.2330   -10.1500 ha         1 Y09       0.077000
     33 H13         20.7680     5.6530    -8.3990 ha         1 Y09       0.092000
     34 H14         19.0690     9.1500    -6.0280 h1         1 Y09       0.046367
     35 H15         20.7430     9.6770    -6.2960 h1         1 Y09       0.046367
     36 H16         19.5080     9.9340    -7.5590 h1         1 Y09       0.046367
     37 H3          23.3880    10.6180    -9.8240 hn         1 Y09       0.274000
@<TRIPOS>BOND
     1     1     2 1   
     2     2     3 1   
     3     2     4 1   
     4     2     5 1   
     5     5     6 ar  
     6     5    10 ar  
     7     6     7 ar  
     8     6    24 1   
     9     7     8 ar  
    10     7    25 1   
    11     8     9 ar  
    12     8    26 1   
    13     9    10 ar  
    14     9    27 1   
    15    10    11 1   
    16    11    12 1   
    17    12    13 1   
    18    12    28 1   
    19    12    29 1   
    20    13    14 2   
    21    13    15 1   
    22    15    16 1   
    23    15    37 1   
    24    16    17 ar  
    25    16    18 ar  
    26    17    21 ar  
    27    17    30 1   
    28    18    19 ar  
    29    18    31 1   
    30    19    20 ar  
    31    19    32 1   
    32    20    21 ar  
    33    20    33 1   
    34    21    22 1   
    35    22    23 1   
    36    23    34 1   
    37    23    35 1   
    38    23    36 1   
@<TRIPOS>SUBSTRUCTURE
     1 Y09         1 TEMP              0 ****  ****    0 ROOT
