@<TRIPOS>MOLECULE
Y09
   37    38     1     0     0
SMALL
abcg2


@<TRIPOS>ATOM
      1 OAS         21.5390    14.3270    -8.2400 o          1 Y09      -0.910167
      2 PAR         22.0570    13.4110    -9.3440 p5         1 Y09       1.195000
      3 OAU         21.1150    13.2940   -10.5400 o          1 Y09      -0.910167
      4 OAT         22.5410    12.0490    -8.8080 o          1 Y09      -0.910167
      5 CAM         23.6030    14.2260    -9.9710 ca         1 Y09      -0.138500
      6 CAN         23.9770    15.5020    -9.5450 ca         1 Y09      -0.057000
      7 CAO         25.1610    16.1080    -9.9600 ca         1 Y09      -0.181000
      8 CAP         26.0080    15.4320   -10.8300 ca         1 Y09      -0.134000
      9 CAQ         25.6650    14.1610   -11.2840 ca         1 Y09      -0.220000
     10 CAL         24.4740    13.5760   -10.8590 ca         1 Y09       0.154100
     11 OAK         24.0820    12.3410   -11.3120 os         1 Y09      -0.325100
     12 CAA         25.0590    11.3480   -11.5510 c3         1 Y09       0.094600
     13 CAB         24.5170     9.9630   -11.2160 c          1 Y09       0.593100
     14 OAD         25.0610     8.9880   -11.7350 o          1 Y09      -0.693100
     15 NAC         23.4970     9.9320   -10.3340 ns         1 Y09      -0.122000
     16 CAE         22.8230     8.7950    -9.8490 ca         1 Y09       0.039000
     17 CAF         21.9320     9.0180    -8.7860 ca         1 Y09      -0.203000
     18 CAJ         22.9760     7.5080   -10.3700 ca         1 Y09      -0.204000
     19 CAI         22.2380     6.4630    -9.8160 ca         1 Y09      -0.091000
     20 CAH         21.3600     6.6680    -8.7640 ca         1 Y09      -0.208000
     21 CAG         21.2100     7.9600    -8.2500 ca         1 Y09       0.134100
     22 OAV         20.3300     8.0990    -7.2180 os         1 Y09      -0.387100
     23 CAW         20.1430     9.4010    -6.6670 c3         1 Y09       0.145900
     24 H4          23.3240    16.0130    -8.8480 ha         1 Y09       0.134000
     25 H5          25.4210    17.0970    -9.6030 ha         1 Y09       0.068000
     26 H6          26.9340    15.8860   -11.1620 ha         1 Y09       0.061000
     27 H7          26.3150    13.6360   -11.9720 ha         1 Y09       0.076000
     28 H8          25.3680    11.3350   -12.5990 h1         1 Y09       0.035700
     29 H9          25.9470    11.5150   -10.9340 h1         1 Y09       0.035700
     30 H10         21.8340    10.0290    -8.4170 ha         1 Y09       0.214000
     31 H11         23.6550     7.3290   -11.1850 ha         1 Y09       0.131000
     32 H12         22.3550     5.4650   -10.2210 ha         1 Y09       0.077000
     33 H13         20.7900     5.8540    -8.3360 ha         1 Y09       0.092000
     34 H14         19.4080     9.2870    -5.8740 h1         1 Y09       0.046367
     35 H15         21.0760     9.7900    -6.2510 h1         1 Y09       0.046367
     36 H16         19.7660    10.0970    -7.4200 h1         1 Y09       0.046367
     37 H3          23.1940    10.8330    -9.9010 hn         1 Y09       0.274000
@<TRIPOS>BOND
     1     1     2 1   
     2     2     3 1   
     3     2     4 1   
     4     2     5 1   
     5     5     6 ar  
     6     5    10 ar  
     7     6     7 ar  
     8     6    24 1   
     9     7     8 ar  
    10     7    25 1   
    11     8     9 ar  
    12     8    26 1   
    13     9    10 ar  
    14     9    27 1   
    15    10    11 1   
    16    11    12 1   
    17    12    13 1   
    18    12    28 1   
    19    12    29 1   
    20    13    14 2   
    21    13    15 1   
    22    15    16 1   
    23    15    37 1   
    24    16    17 ar  
    25    16    18 ar  
    26    17    21 ar  
    27    17    30 1   
    28    18    19 ar  
    29    18    31 1   
    30    19    20 ar  
    31    19    32 1   
    32    20    21 ar  
    33    20    33 1   
    34    21    22 1   
    35    22    23 1   
    36    23    34 1   
    37    23    35 1   
    38    23    36 1   
@<TRIPOS>SUBSTRUCTURE
     1 Y09         1 TEMP              0 ****  ****    0 ROOT
