@<TRIPOS>MOLECULE
Y0A
   41    42     1     0     0
SMALL
No Charge or Current Charge


@<TRIPOS>ATOM
      1 N1         -18.9570    17.3860    25.9970 n          1 Y0A      -0.403800
      2 C4         -17.8640    18.0230    26.6160 c          1 Y0A       0.645100
      3 C5         -20.0530    16.7650    26.7580 c6         1 Y0A       0.078500
      4 C6         -19.9790    15.2190    26.6860 c6         1 Y0A       0.064500
      5 C7         -19.6550    13.2130    25.0910 c          1 Y0A       0.542600
      6 C8         -20.1370    12.2570    26.1510 cc         1 Y0A       0.056500
      7 C10        -20.6960    10.3510    27.1900 cd         1 Y0A      -0.198000
      8 C13        -19.0460    17.0250    24.5690 c6         1 Y0A       0.078500
      9 N          -16.8540    18.4310    25.7800 ns         1 Y0A      -0.515900
     10 C          -13.6040    17.1640    24.5510 c3         1 Y0A      -0.091100
     11 O          -17.8130    18.2000    27.8230 o          1 Y0A      -0.640100
     12 C1         -14.2970    16.7650    25.8700 c3         1 Y0A      -0.075400
     13 C11        -20.8630    11.3890    28.0640 cc         1 Y0A       0.139900
     14 C12        -18.8670    15.5000    24.3900 c6         1 Y0A       0.064500
     15 C2         -14.6150    17.9590    26.8060 c3         1 Y0A      -0.106400
     16 C3         -15.5850    19.0130    26.2210 c3         1 Y0A       0.117000
     17 C9         -20.2330    10.8990    25.9770 cd         1 Y0A      -0.112000
     18 N2         -19.6130    14.6160    25.3550 n          1 Y0A      -0.399800
     19 O1         -19.2910    12.7960    23.9960 o          1 Y0A      -0.584100
     20 O2         -20.5200    12.5690    27.4430 os         1 Y0A      -0.229000
     21 H10        -20.0440    17.0880    27.8090 h1         1 Y0A       0.068450
     22 H11        -21.0110    17.0970    26.3320 h1         1 Y0A       0.068450
     23 H13        -19.2460    14.8770    27.4290 h1         1 Y0A       0.061200
     24 H12        -20.9670    14.8500    26.9920 h1         1 Y0A       0.061200
     25 H15        -20.8850     9.3040    27.4010 ha         1 Y0A       0.147000
     26 H20        -18.3160    17.5630    23.9520 h1         1 Y0A       0.068450
     27 H19        -20.0410    17.3090    24.1950 h1         1 Y0A       0.068450
     28 H9         -16.9810    18.2550    24.7940 hn         1 Y0A       0.308500
     29 H          -13.3450    16.2680    23.9730 hc         1 Y0A       0.031033
     30 H2         -14.2610    17.7870    23.9330 hc         1 Y0A       0.031033
     31 H1         -12.6810    17.7210    24.7500 hc         1 Y0A       0.031033
     32 H4         -15.2180    16.2150    25.6440 hc         1 Y0A       0.037700
     33 H3         -13.6440    16.0660    26.4090 hc         1 Y0A       0.037700
     34 H16        -21.1960    11.4310    29.0930 h4         1 Y0A       0.055100
     35 H17        -17.7960    15.2700    24.4870 h1         1 Y0A       0.061200
     36 H18        -19.1540    15.2430    23.3600 h1         1 Y0A       0.061200
     37 H6         -15.0400    17.5680    27.7380 hc         1 Y0A       0.054200
     38 H5         -13.6790    18.4590    27.0820 hc         1 Y0A       0.054200
     39 H7         -15.7880    19.7830    26.9780 h1         1 Y0A       0.054200
     40 H8         -15.1130    19.5110    25.3640 h1         1 Y0A       0.054200
     41 H14        -19.9930    10.3520    25.0690 ha         1 Y0A       0.156000
@<TRIPOS>BOND
     1     1     2 1   
     2     1     3 1   
     3     1     8 1   
     4     2     9 1   
     5     2    11 2   
     6     3     4 1   
     7     3    21 1   
     8     3    22 1   
     9     4    18 1   
    10     4    23 1   
    11     4    24 1   
    12     5     6 1   
    13     5    18 1   
    14     5    19 2   
    15     6    17 2   
    16     6    20 1   
    17     7    13 2   
    18     7    17 1   
    19     7    25 1   
    20     8    14 1   
    21     8    26 1   
    22     8    27 1   
    23     9    16 1   
    24     9    28 1   
    25    10    12 1   
    26    10    29 1   
    27    10    30 1   
    28    10    31 1   
    29    12    15 1   
    30    12    32 1   
    31    12    33 1   
    32    13    20 1   
    33    13    34 1   
    34    14    18 1   
    35    14    35 1   
    36    14    36 1   
    37    15    16 1   
    38    15    37 1   
    39    15    38 1   
    40    16    39 1   
    41    16    40 1   
    42    17    41 1   
@<TRIPOS>SUBSTRUCTURE
     1 Y0A         1 TEMP              0 ****  ****    0 ROOT
