@<TRIPOS>MOLECULE
Y0A
   41    42     1     0     0
SMALL
bcc


@<TRIPOS>ATOM
      1 N1         -18.9110    17.1580    26.1060 n          1 Y0A      -0.470800
      2 C4         -17.8400    17.8390    26.6470 c          1 Y0A       0.779100
      3 C5         -19.7050    16.3260    26.9920 c6         1 Y0A       0.078500
      4 C6         -19.1970    14.8930    26.9730 c6         1 Y0A       0.064500
      5 C7         -19.4210    13.0880    25.2670 c          1 Y0A       0.609600
      6 C8         -20.3540    12.2920    26.0890 cc         1 Y0A       0.166200
      7 C10        -21.5380    10.6820    27.0680 cd         1 Y0A      -0.281300
      8 C13        -18.9500    16.6380    24.7520 c6         1 Y0A       0.078500
      9 N          -16.9640    18.4060    25.7820 ns         1 Y0A      -0.582900
     10 C          -13.6770    17.7200    24.3160 c3         1 Y0A      -0.091100
     11 O          -17.7180    17.9740    27.8600 o          1 Y0A      -0.640100
     12 C1         -14.2520    17.0640    25.5660 c3         1 Y0A      -0.075400
     13 C11        -22.0990    11.8890    27.3230 cc         1 Y0A       0.249600
     14 C12        -18.4200    15.2110    24.6890 c6         1 Y0A       0.064500
     15 C2         -14.6520    18.0550    26.6540 c3         1 Y0A      -0.106400
     16 C3         -15.7450    19.0390    26.2420 c3         1 Y0A       0.117000
     17 C9         -20.4030    10.9440    26.2530 cd         1 Y0A      -0.195300
     18 N2         -19.1780    14.3760    25.6080 n          1 Y0A      -0.466800
     19 O1         -18.9290    12.5550    24.2820 o          1 Y0A      -0.584100
     20 O2         -21.3920    12.8700    26.7350 os         1 Y0A      -0.317800
     21 H10        -19.6730    16.7150    28.0050 h1         1 Y0A       0.068450
     22 H11        -20.7450    16.3540    26.6560 h1         1 Y0A       0.068450
     23 H13        -18.1750    14.8700    27.3690 h1         1 Y0A       0.061200
     24 H12        -19.8060    14.2750    27.6240 h1         1 Y0A       0.061200
     25 H15        -21.8910     9.7250    27.4140 ha         1 Y0A       0.165000
     26 H20        -18.4080    17.2640    24.0470 h1         1 Y0A       0.068450
     27 H19        -19.9900    16.6490    24.4180 h1         1 Y0A       0.068450
     28 H9         -17.0250    18.2280    24.7960 hn         1 Y0A       0.308500
     29 H          -13.3430    16.9710    23.5970 hc         1 Y0A       0.031033
     30 H2         -14.4090    18.3500    23.8080 hc         1 Y0A       0.031033
     31 H1         -12.8190    18.3480    24.5620 hc         1 Y0A       0.031033
     32 H4         -15.1140    16.4470    25.2940 hc         1 Y0A       0.037700
     33 H3         -13.5130    16.3740    25.9810 hc         1 Y0A       0.037700
     34 H16        -22.9720    12.1910    27.8790 h4         1 Y0A       0.055100
     35 H17        -17.3540    15.1950    24.9430 h1         1 Y0A       0.061200
     36 H18        -18.5250    14.8290    23.6760 h1         1 Y0A       0.061200
     37 H6         -14.9800    17.5100    27.5420 hc         1 Y0A       0.054200
     38 H5         -13.7760    18.6360    26.9580 hc         1 Y0A       0.054200
     39 H7         -15.9720    19.7070    27.0730 h1         1 Y0A       0.054200
     40 H8         -15.3940    19.6730    25.4270 h1         1 Y0A       0.054200
     41 H14        -19.7100    10.2260    25.8450 ha         1 Y0A       0.174000
@<TRIPOS>BOND
     1     1     2 1   
     2     1     3 1   
     3     1     8 1   
     4     2     9 1   
     5     2    11 2   
     6     3     4 1   
     7     3    21 1   
     8     3    22 1   
     9     4    18 1   
    10     4    23 1   
    11     4    24 1   
    12     5     6 1   
    13     5    18 1   
    14     5    19 2   
    15     6    17 2   
    16     6    20 1   
    17     7    13 2   
    18     7    17 1   
    19     7    25 1   
    20     8    14 1   
    21     8    26 1   
    22     8    27 1   
    23     9    16 1   
    24     9    28 1   
    25    10    12 1   
    26    10    29 1   
    27    10    30 1   
    28    10    31 1   
    29    12    15 1   
    30    12    32 1   
    31    12    33 1   
    32    13    20 1   
    33    13    34 1   
    34    14    18 1   
    35    14    35 1   
    36    14    36 1   
    37    15    16 1   
    38    15    37 1   
    39    15    38 1   
    40    16    39 1   
    41    16    40 1   
    42    17    41 1   
@<TRIPOS>SUBSTRUCTURE
     1 Y0A         1 TEMP              0 ****  ****    0 ROOT
