@<TRIPOS>MOLECULE
Y0B
   44    46     1     0     0
SMALL
abcg2


@<TRIPOS>ATOM
      1 C1          41.7120   -15.6960    16.4970 ca         1 Y0B      -0.070000
      2 C10         37.2370   -17.3970    15.5320 c3         1 Y0B       0.077600
      3 C11         36.5690   -16.5480    14.4580 c3         1 Y0B      -0.103400
      4 C12         35.0580   -16.7170    14.4750 c3         1 Y0B      -0.090100
      5 C14         40.2830   -19.7310    13.3260 c3         1 Y0B       0.282100
      6 C15         40.7690   -19.0240    12.0820 ca         1 Y0B      -0.199300
      7 C16         40.0480   -19.1880    10.8960 ca         1 Y0B      -0.107000
      8 C17         40.4770   -18.6060     9.7220 ca         1 Y0B      -0.119000
      9 C18         41.6470   -17.8480     9.7080 ca         1 Y0B      -0.165000
     10 C19         42.3700   -17.6640    10.8760 ca         1 Y0B       0.096100
     11 C2          41.3100   -14.6860    17.3620 ca         1 Y0B      -0.120000
     12 C20         41.9240   -18.2420    12.0850 ca         1 Y0B       0.169100
     13 C23         44.0290   -16.3760     9.7860 c3         1 Y0B       0.145900
     14 C3          39.9630   -14.4800    17.6650 ca         1 Y0B      -0.110000
     15 C4          38.9690   -15.2800    17.1100 ca         1 Y0B      -0.108000
     16 C5          39.3800   -16.2850    16.2520 ca         1 Y0B      -0.083200
     17 C6          40.7300   -16.5040    15.9390 ca         1 Y0B       0.118400
     18 C8          39.5970   -17.9700    14.8560 cc         1 Y0B       0.679700
     19 N13         39.2690   -19.0180    14.0830 nu         1 Y0B      -0.891400
     20 N7          40.8320   -17.5610    15.0630 nd         1 Y0B      -0.701100
     21 N9          38.6770   -17.2490    15.5560 na         1 Y0B      -0.211600
     22 O21         42.6660   -18.0260    13.1830 oh         1 Y0B      -0.570100
     23 O22         43.5080   -16.9460    10.9650 os         1 Y0B      -0.317100
     24 H11         42.7580   -15.8520    16.2650 ha         1 Y0B       0.131000
     25 H101        36.8590   -17.1290    16.5200 h1         1 Y0B       0.059200
     26 H102        36.9950   -18.4530    15.3960 h1         1 Y0B       0.059200
     27 H111        36.9660   -16.8260    13.4780 hc         1 Y0B       0.053700
     28 H112        36.8310   -15.4990    14.6150 hc         1 Y0B       0.053700
     29 H121        34.5870   -16.1030    13.7080 hc         1 Y0B       0.038033
     30 H123        34.7730   -17.7540    14.2900 hc         1 Y0B       0.038033
     31 H122        34.6370   -16.4240    15.4390 hc         1 Y0B       0.038033
     32 H141        39.8340   -20.6800    13.0360 h1         1 Y0B       0.067700
     33 H142        41.1090   -19.9750    13.9950 h1         1 Y0B       0.067700
     34 H161        39.1510   -19.7970    10.9040 ha         1 Y0B       0.102000
     35 H171        39.9190   -18.7410     8.8050 ha         1 Y0B       0.111000
     36 H181        41.9740   -17.4040     8.7770 ha         1 Y0B       0.116000
     37 H21         42.0570   -14.0430    17.8100 ha         1 Y0B       0.113000
     38 H232        44.9490   -15.8680    10.0660 h1         1 Y0B       0.036700
     39 H233        44.2610   -17.1330     9.0310 h1         1 Y0B       0.036700
     40 H231        43.3460   -15.6430     9.3450 h1         1 Y0B       0.036700
     41 H31         39.6840   -13.6840    18.3420 ha         1 Y0B       0.112000
     42 H41         37.9250   -15.1160    17.3440 ha         1 Y0B       0.114000
     43 H131        38.3230   -19.0910    13.7460 hn         1 Y0B       0.488000
     44 H211        42.0640   -17.9080    13.9740 ho         1 Y0B       0.526000
@<TRIPOS>BOND
     1     1    11 ar  
     2     1    17 ar  
     3     1    24 1   
     4     2     3 1   
     5     2    21 1   
     6     2    25 1   
     7     2    26 1   
     8     3     4 1   
     9     3    27 1   
    10     3    28 1   
    11     4    29 1   
    12     4    30 1   
    13     4    31 1   
    14     5     6 1   
    15     5    19 1   
    16     5    32 1   
    17     5    33 1   
    18     6     7 ar  
    19     6    12 ar  
    20     7     8 ar  
    21     7    34 1   
    22     8     9 ar  
    23     8    35 1   
    24     9    10 ar  
    25     9    36 1   
    26    10    12 ar  
    27    10    23 1   
    28    11    14 ar  
    29    11    37 1   
    30    12    22 1   
    31    13    23 1   
    32    13    38 1   
    33    13    39 1   
    34    13    40 1   
    35    14    15 ar  
    36    14    41 1   
    37    15    16 ar  
    38    15    42 1   
    39    16    17 ar  
    40    16    21 1   
    41    17    20 1   
    42    18    19 1   
    43    18    20 2   
    44    18    21 1   
    45    19    43 1   
    46    22    44 1   
@<TRIPOS>SUBSTRUCTURE
     1 Y0B         1 TEMP              0 ****  ****    0 ROOT
