@<TRIPOS>MOLECULE
Y0B
   44    46     1     0     0
SMALL
No Charge or Current Charge


@<TRIPOS>ATOM
      1 C1          41.7050   -15.8480    16.8360 ca         1 Y0B      -0.070000
      2 C10         37.2650   -17.3150    15.4590 c3         1 Y0B       0.077600
      3 C11         36.7470   -16.4090    14.3220 c3         1 Y0B      -0.103400
      4 C12         35.2150   -16.4520    14.1700 c3         1 Y0B      -0.090100
      5 C14         40.4460   -19.8870    13.4270 c3         1 Y0B       0.282100
      6 C15         40.8260   -19.1780    12.1320 ca         1 Y0B      -0.199300
      7 C16         40.1020   -19.4750    10.9600 ca         1 Y0B      -0.107000
      8 C17         40.4380   -18.8710     9.7400 ca         1 Y0B      -0.119000
      9 C18         41.5060   -17.9630     9.6700 ca         1 Y0B      -0.165000
     10 C19         42.2450   -17.6480    10.8330 ca         1 Y0B       0.096100
     11 C2          41.2740   -14.7730    17.6460 ca         1 Y0B      -0.120000
     12 C20         41.8960   -18.2540    12.0690 ca         1 Y0B       0.169100
     13 C23         43.7180   -16.0890     9.5940 c3         1 Y0B       0.145900
     14 C3          39.8940   -14.4950    17.7950 ca         1 Y0B      -0.110000
     15 C4          38.9330   -15.2890    17.1360 ca         1 Y0B      -0.108000
     16 C5          39.4010   -16.3490    16.3440 ca         1 Y0B      -0.083200
     17 C6          40.7350   -16.6270    16.1900 ca         1 Y0B       0.118400
     18 C8          39.7020   -18.0780    15.0120 cc         1 Y0B       0.679700
     19 N13         39.4500   -19.0930    14.1470 nu         1 Y0B      -0.891400
     20 N7          40.9450   -17.7170    15.3460 nd         1 Y0B      -0.701100
     21 N9          38.7310   -17.2720    15.5950 na         1 Y0B      -0.211600
     22 O21         42.6020   -17.9400    13.2020 oh         1 Y0B      -0.570100
     23 O22         43.3020   -16.7510    10.8010 os         1 Y0B      -0.317100
     24 H11         42.7620   -16.0670    16.7140 ha         1 Y0B       0.131000
     25 H101        36.8090   -17.0090    16.4090 h1         1 Y0B       0.059200
     26 H102        36.9570   -18.3510    15.2700 h1         1 Y0B       0.059200
     27 H111        37.2110   -16.7130    13.3760 hc         1 Y0B       0.053700
     28 H112        37.0600   -15.3750    14.5140 hc         1 Y0B       0.053700
     29 H121        34.8930   -15.7940    13.3540 hc         1 Y0B       0.038033
     30 H123        34.8750   -17.4700    13.9440 hc         1 Y0B       0.038033
     31 H122        34.7240   -16.1200    15.0930 hc         1 Y0B       0.038033
     32 H141        40.0320   -20.8770    13.1900 h1         1 Y0B       0.067700
     33 H142        41.3370   -20.0620    14.0460 h1         1 Y0B       0.067700
     34 H161        39.2760   -20.1830    10.9930 ha         1 Y0B       0.102000
     35 H171        39.8700   -19.1110     8.8430 ha         1 Y0B       0.111000
     36 H181        41.7420   -17.5160     8.7090 ha         1 Y0B       0.116000
     37 H21         42.0090   -14.1550    18.1570 ha         1 Y0B       0.113000
     38 H232        44.5690   -15.4270     9.7980 h1         1 Y0B       0.036700
     39 H233        44.0300   -16.8190     8.8360 h1         1 Y0B       0.036700
     40 H231        42.9040   -15.4780     9.1830 h1         1 Y0B       0.036700
     41 H31         39.5740   -13.6640    18.4190 ha         1 Y0B       0.112000
     42 H41         37.8710   -15.0810    17.2420 ha         1 Y0B       0.114000
     43 H131        38.4780   -19.1790    13.8700 hn         1 Y0B       0.488000
     44 H211        41.9670   -17.9380    13.9740 ho         1 Y0B       0.526000
@<TRIPOS>BOND
     1     1    11 ar  
     2     1    17 ar  
     3     1    24 1   
     4     2     3 1   
     5     2    21 1   
     6     2    25 1   
     7     2    26 1   
     8     3     4 1   
     9     3    27 1   
    10     3    28 1   
    11     4    29 1   
    12     4    30 1   
    13     4    31 1   
    14     5     6 1   
    15     5    19 1   
    16     5    32 1   
    17     5    33 1   
    18     6     7 ar  
    19     6    12 ar  
    20     7     8 ar  
    21     7    34 1   
    22     8     9 ar  
    23     8    35 1   
    24     9    10 ar  
    25     9    36 1   
    26    10    12 ar  
    27    10    23 1   
    28    11    14 ar  
    29    11    37 1   
    30    12    22 1   
    31    13    23 1   
    32    13    38 1   
    33    13    39 1   
    34    13    40 1   
    35    14    15 ar  
    36    14    41 1   
    37    15    16 ar  
    38    15    42 1   
    39    16    17 ar  
    40    16    21 1   
    41    17    20 1   
    42    18    19 1   
    43    18    20 2   
    44    18    21 1   
    45    19    43 1   
    46    22    44 1   
@<TRIPOS>SUBSTRUCTURE
     1 Y0B         1 TEMP              0 ****  ****    0 ROOT
