@<TRIPOS>MOLECULE
Y0C
   21    22     1     0     0
SMALL
abcg2


@<TRIPOS>ATOM
      1 C10         17.0540    13.4110     2.6970 ca         1 Y0C      -0.148000
      2 C02         18.8060     8.7650    -0.1250 c          1 Y0C       0.572000
      3 C03         17.7130     8.2730     0.8060 c5         1 Y0C      -0.045400
      4 C05         17.4360    10.7380     0.0290 c5         1 Y0C       0.317000
      5 C06         17.7850    11.6680     1.1640 ca         1 Y0C      -0.154300
      6 C07         19.0350    11.6950     1.7720 ca         1 Y0C      -0.073000
      7 C08         19.2980    12.5590     2.8280 ca         1 Y0C      -0.124000
      8 C09         18.3110    13.4170     3.2880 ca         1 Y0C      -0.076000
      9 C11         16.8220    12.5400     1.6550 ca         1 Y0C       0.188000
     10 F12         15.6030    12.5140     1.0890 f          1 Y0C      -0.175000
     11 N13         18.5640    10.0360    -0.5100 ns         1 Y0C      -0.514900
     12 S04         16.3120     9.3960     0.5930 ss         1 Y0C      -0.387000
     13 H1          16.2670    14.0700     3.0390 ha         1 Y0C       0.136000
     14 H2          17.4220     7.2570     0.5470 h1         1 Y0C       0.102200
     15 H3          18.0860     8.2740     1.8330 h1         1 Y0C       0.102200
     16 H4          16.9220    11.2790    -0.7650 h2         1 Y0C       0.102700
     17 H5          19.8180    11.0380     1.4190 ha         1 Y0C       0.122000
     18 H6          20.2780    12.5610     3.2860 ha         1 Y0C       0.122000
     19 H7          18.5120    14.0940     4.1080 ha         1 Y0C       0.121000
     20 H8          19.2300    10.5280    -1.0880 hn         1 Y0C       0.337500
     21 O01         19.7680     8.1030    -0.4540 o          1 Y0C      -0.527000
@<TRIPOS>BOND
     1     1     8 ar  
     2     1     9 ar  
     3     1    13 1   
     4     2     3 1   
     5     2    11 1   
     6     2    21 2   
     7     3    12 1   
     8     3    14 1   
     9     3    15 1   
    10     4     5 1   
    11     4    11 1   
    12     4    12 1   
    13     4    16 1   
    14     5     6 ar  
    15     5     9 ar  
    16     6     7 ar  
    17     6    17 1   
    18     7     8 ar  
    19     7    18 1   
    20     8    19 1   
    21     9    10 1   
    22    11    20 1   
@<TRIPOS>SUBSTRUCTURE
     1 Y0C         1 TEMP              0 ****  ****    0 ROOT
