@<TRIPOS>MOLECULE
Y0C
   21    22     1     0     0
SMALL
No Charge or Current Charge


@<TRIPOS>ATOM
      1 C10         17.0910    13.5050     2.6400 ca         1 Y0C      -0.148000
      2 C02         18.8570     8.8000    -0.1990 c          1 Y0C       0.572000
      3 C03         17.8780     8.3160     0.8760 c5         1 Y0C      -0.045400
      4 C05         17.3560    10.7030     0.0250 c5         1 Y0C       0.317000
      5 C06         17.7160    11.6370     1.1820 ca         1 Y0C      -0.154300
      6 C07         18.9440    11.5390     1.8790 ca         1 Y0C      -0.073000
      7 C08         19.2360    12.4130     2.9410 ca         1 Y0C      -0.124000
      8 C09         18.3110    13.3970     3.3240 ca         1 Y0C      -0.076000
      9 C11         16.7980    12.6320     1.5800 ca         1 Y0C       0.188000
     10 F12         15.6150    12.7600     0.9380 f          1 Y0C      -0.175000
     11 N13         18.4920    10.0550    -0.6290 ns         1 Y0C      -0.514900
     12 S04         16.3260     9.2720     0.5840 ss         1 Y0C      -0.387000
     13 H1          16.3680    14.2640     2.9290 ha         1 Y0C       0.136000
     14 H2          17.7150     7.2360     0.7750 h1         1 Y0C       0.102200
     15 H3          18.2970     8.5450     1.8640 h1         1 Y0C       0.102200
     16 H4          16.7660    11.2720    -0.7080 h2         1 Y0C       0.102700
     17 H5          19.6820    10.7890     1.6060 ha         1 Y0C       0.122000
     18 H6          20.1840    12.3260     3.4690 ha         1 Y0C       0.122000
     19 H7          18.5400    14.0720     4.1460 ha         1 Y0C       0.121000
     20 H8          19.0550    10.4870    -1.3510 hn         1 Y0C       0.337500
     21 O01         19.8130     8.1970    -0.6600 o          1 Y0C      -0.527000
@<TRIPOS>BOND
     1     1     8 ar  
     2     1     9 ar  
     3     1    13 1   
     4     2     3 1   
     5     2    11 1   
     6     2    21 2   
     7     3    12 1   
     8     3    14 1   
     9     3    15 1   
    10     4     5 1   
    11     4    11 1   
    12     4    12 1   
    13     4    16 1   
    14     5     6 ar  
    15     5     9 ar  
    16     6     7 ar  
    17     6    17 1   
    18     7     8 ar  
    19     7    18 1   
    20     8    19 1   
    21     9    10 1   
    22    11    20 1   
@<TRIPOS>SUBSTRUCTURE
     1 Y0C         1 TEMP              0 ****  ****    0 ROOT
