@<TRIPOS>MOLECULE
Y0D
   39    41     1     0     0
SMALL
No Charge or Current Charge


@<TRIPOS>ATOM
      1 N1         -15.8570    17.2640    26.2130 ns         1 Y0D      -0.505900
      2 N3         -19.3470    13.5790    25.4570 n          1 Y0D      -0.399800
      3 C4         -13.6840    20.2270    25.1890 cx         1 Y0D      -0.128900
      4 C5         -14.6190    19.5650    24.2030 cx         1 Y0D      -0.128900
      5 C6         -18.3290    14.7390    27.4310 c6         1 Y0D       0.100000
      6 C7         -18.7850    13.3910    26.8200 c6         1 Y0D       0.085000
      7 C8         -20.4310    12.8290    24.9430 c          1 Y0D       0.645700
      8 C10        -21.8940    13.1090    27.0400 cc         1 Y0D      -0.099000
      9 C13        -18.4380    14.3120    24.5300 c6         1 Y0D       0.085000
     10 C1         -16.7590    16.6630    27.0520 c          1 Y0D       0.655100
     11 C11        -23.0910    12.6190    27.6160 cc         1 Y0D      -0.141000
     12 C12        -23.7000    11.6430    26.8730 cd         1 Y0D      -0.251000
     13 C14        -17.1790    14.9540    25.1870 c6         1 Y0D       0.100000
     14 C2         -15.0810    18.4510    26.5510 c3         1 Y0D       0.134000
     15 C3         -14.1320    18.8010    25.4140 cx         1 Y0D      -0.148700
     16 C9         -21.5590    12.4900    25.8540 cd         1 Y0D      -0.296600
     17 N2         -17.4230    15.5290    26.5480 n          1 Y0D      -0.433800
     18 O1         -16.9700    17.0880    28.1770 o          1 Y0D      -0.641100
     19 O2         -20.4470    12.4880    23.7680 o          1 Y0D      -0.600100
     20 S1         -22.7940    11.3070    25.3870 ss         1 Y0D       0.298000
     21 H1         -15.7310    16.8520    25.3000 hn         1 Y0D       0.303500
     22 H5         -14.0950    21.0020    25.8330 hc         1 Y0D       0.073200
     23 H6         -12.6550    20.3920    24.8800 hc         1 Y0D       0.073200
     24 H7         -15.6550    19.8950    24.1880 hc         1 Y0D       0.073200
     25 H8         -14.2170    19.2850    23.2320 hc         1 Y0D       0.073200
     26 H10        -17.8230    14.5400    28.3860 h1         1 Y0D       0.055450
     27 H9         -19.2170    15.3470    27.6510 h1         1 Y0D       0.055450
     28 H12        -17.9080    12.7340    26.7390 h1         1 Y0D       0.058700
     29 H11        -19.4740    12.8760    27.4970 h1         1 Y0D       0.058700
     30 H17        -18.1100    13.6420    23.7230 h1         1 Y0D       0.058700
     31 H16        -19.0230    15.1150    24.0610 h1         1 Y0D       0.058700
     32 H14        -23.4860    13.0080    28.5510 ha         1 Y0D       0.137000
     33 H15        -24.6220    11.1130    27.0810 h4         1 Y0D       0.152000
     34 H19        -16.4000    14.1840    25.2800 h1         1 Y0D       0.055450
     35 H18        -16.7960    15.7160    24.4960 h1         1 Y0D       0.055450
     36 H3         -15.7700    19.2850    26.7420 h1         1 Y0D       0.053700
     37 H2         -14.5060    18.2590    27.4670 h1         1 Y0D       0.053700
     38 H4         -13.3900    18.0250    25.2380 hc         1 Y0D       0.085700
     39 H13        -21.3500    13.9300    27.4970 ha         1 Y0D       0.138000
@<TRIPOS>BOND
     1     1    10 1   
     2     1    14 1   
     3     1    21 1   
     4     2     6 1   
     5     2     7 1   
     6     2     9 1   
     7     3     4 1   
     8     3    15 1   
     9     3    22 1   
    10     3    23 1   
    11     4    15 1   
    12     4    24 1   
    13     4    25 1   
    14     5     6 1   
    15     5    17 1   
    16     5    26 1   
    17     5    27 1   
    18     6    28 1   
    19     6    29 1   
    20     7    16 1   
    21     7    19 2   
    22     8    11 1   
    23     8    16 2   
    24     8    39 1   
    25     9    13 1   
    26     9    30 1   
    27     9    31 1   
    28    10    17 1   
    29    10    18 2   
    30    11    12 2   
    31    11    32 1   
    32    12    20 1   
    33    12    33 1   
    34    13    17 1   
    35    13    34 1   
    36    13    35 1   
    37    14    15 1   
    38    14    36 1   
    39    14    37 1   
    40    15    38 1   
    41    16    20 1   
@<TRIPOS>SUBSTRUCTURE
     1 Y0D         1 TEMP              0 ****  ****    0 ROOT
