@<TRIPOS>MOLECULE
Y0D
   39    41     1     0     0
SMALL
bcc


@<TRIPOS>ATOM
      1 N1         -15.9530    17.0230    26.1400 ns         1 Y0D      -0.572900
      2 N3         -19.0340    13.5800    25.4800 n          1 Y0D      -0.466800
      3 C4         -14.4630    20.3130    25.1250 cx         1 Y0D      -0.128900
      4 C5         -15.0640    19.3770    24.1200 cx         1 Y0D      -0.128900
      5 C6         -17.9510    14.3030    27.5430 c6         1 Y0D       0.100000
      6 C7         -18.5840    13.1410    26.7870 c6         1 Y0D       0.085000
      7 C8         -20.2680    13.4320    24.9600 c          1 Y0D       0.712700
      8 C10        -21.7200    13.6680    27.0980 cc         1 Y0D      -0.117000
      9 C13        -17.9710    14.0380    24.5920 c6         1 Y0D       0.085000
     10 C1         -16.6620    16.2860    27.0410 c          1 Y0D       0.789100
     11 C11        -22.9910    13.2410    27.5590 cc         1 Y0D      -0.159000
     12 C12        -23.6140    12.4160    26.6710 cd         1 Y0D      -0.124100
     13 C14        -16.7340    14.3690    25.4190 c6         1 Y0D       0.100000
     14 C2         -15.5190    18.3670    26.4650 c3         1 Y0D       0.134000
     15 C3         -14.5460    18.8510    25.4270 cx         1 Y0D      -0.148700
     16 C9         -21.4030    13.1550    25.8710 cd         1 Y0D      -0.151700
     17 N2         -17.1130    15.0660    26.6300 n          1 Y0D      -0.500800
     18 O1         -16.8760    16.6860    28.1810 o          1 Y0D      -0.641100
     19 O2         -20.4830    13.5420    23.7590 o          1 Y0D      -0.600100
     20 S1         -22.6790    12.1710    25.2650 ss         1 Y0D       0.008200
     21 H1         -16.0930    16.8580    25.1570 hn         1 Y0D       0.303500
     22 H5         -15.1300    20.9800    25.6590 hc         1 Y0D       0.073200
     23 H6         -13.4890    20.7360    24.9150 hc         1 Y0D       0.073200
     24 H7         -16.1380    19.4100    23.9780 hc         1 Y0D       0.073200
     25 H8         -14.5040    19.1590    23.2210 hc         1 Y0D       0.073200
     26 H10        -17.3820    13.9090    28.3910 h1         1 Y0D       0.055450
     27 H9         -18.7340    14.9470    27.9440 h1         1 Y0D       0.055450
     28 H12        -17.8690    12.3240    26.6580 h1         1 Y0D       0.058700
     29 H11        -19.4060    12.7310    27.3650 h1         1 Y0D       0.058700
     30 H17        -17.7210    13.2820    23.8420 h1         1 Y0D       0.058700
     31 H16        -18.3110    14.9300    24.0630 h1         1 Y0D       0.058700
     32 H14        -23.4210    13.5370    28.5050 ha         1 Y0D       0.155000
     33 H15        -24.5770    11.9400    26.7750 h4         1 Y0D       0.170000
     34 H19        -16.1850    13.4590    25.6750 h1         1 Y0D       0.055450
     35 H18        -16.0520    14.9550    24.8100 h1         1 Y0D       0.055450
     36 H3         -16.3650    19.0630    26.5250 h1         1 Y0D       0.053700
     37 H2         -15.0430    18.3610    27.4460 h1         1 Y0D       0.053700
     38 H4         -13.6140    18.2950    25.3850 hc         1 Y0D       0.085700
     39 H13        -21.0830    14.3480    27.6470 ha         1 Y0D       0.156000
@<TRIPOS>BOND
     1     1    10 1   
     2     1    14 1   
     3     1    21 1   
     4     2     6 1   
     5     2     7 1   
     6     2     9 1   
     7     3     4 1   
     8     3    15 1   
     9     3    22 1   
    10     3    23 1   
    11     4    15 1   
    12     4    24 1   
    13     4    25 1   
    14     5     6 1   
    15     5    17 1   
    16     5    26 1   
    17     5    27 1   
    18     6    28 1   
    19     6    29 1   
    20     7    16 1   
    21     7    19 2   
    22     8    11 1   
    23     8    16 2   
    24     8    39 1   
    25     9    13 1   
    26     9    30 1   
    27     9    31 1   
    28    10    17 1   
    29    10    18 2   
    30    11    12 2   
    31    11    32 1   
    32    12    20 1   
    33    12    33 1   
    34    13    17 1   
    35    13    34 1   
    36    13    35 1   
    37    14    15 1   
    38    14    36 1   
    39    14    37 1   
    40    15    38 1   
    41    16    20 1   
@<TRIPOS>SUBSTRUCTURE
     1 Y0D         1 TEMP              0 ****  ****    0 ROOT
