@<TRIPOS>MOLECULE
Y0E
   62    65     1     0     0
SMALL
abcg2


@<TRIPOS>ATOM
      1 C10         18.5000    -1.4370    42.9170 ca         1 Y0E      -0.094500
      2 C13         17.1930    -1.1780    45.3530 ca         1 Y0E      -0.113000
      3 C17         12.2900     0.5790    39.3250 ca         1 Y0E       0.348900
      4 C20         10.9880    -1.6930    38.6140 ca         1 Y0E      -0.162000
      5 C21         12.3290    -1.7700    38.9530 ca         1 Y0E      -0.048000
      6 C22         15.2840     1.0420    41.3050 ca         1 Y0E      -0.053000
      7 C24         16.7760     1.7510    43.0580 ca         1 Y0E      -0.085500
      8 C26         15.9620     2.1830    45.3830 cp         1 Y0E      -0.032000
      9 C28         15.4630     1.9330    47.7440 ca         1 Y0E      -0.112000
     10 O01         15.4860     0.8800    37.7350 o          1 Y0E      -0.591100
     11 N03         15.0850     0.6240    39.9530 n          1 Y0E      -0.246400
     12 C04         14.4770    -0.6840    39.6740 c3         1 Y0E       0.084000
     13 N06         16.0750    -1.9880    40.9390 ns         1 Y0E      -0.496900
     14 C07         16.6080    -2.8610    41.9890 c3         1 Y0E       0.156000
     15 C08         17.5370    -3.9030    41.3710 c3         1 Y0E      -0.098100
     16 C09         17.2610    -2.0530    43.0970 ca         1 Y0E      -0.106300
     17 C11         19.0810    -0.7040    43.9440 ca         1 Y0E      -0.113000
     18 C12         18.4290    -0.5720    45.1660 ca         1 Y0E      -0.101000
     19 C14         16.6140    -1.9110    44.3230 ca         1 Y0E      -0.094500
     20 O15         13.8860    -2.1510    41.5210 o          1 Y0E      -0.591100
     21 C16         13.0060    -0.6120    39.3300 ca         1 Y0E      -0.129300
     22 N18         10.9950     0.6690    38.9990 nb         1 Y0E      -0.667000
     23 C19         10.3600    -0.4520    38.6570 ca         1 Y0E       0.336900
     24 C23         16.5660     1.3570    41.7480 ca         1 Y0E      -0.114000
     25 C25         15.7210     1.8070    43.9740 cp         1 Y0E      -0.032000
     26 C27         15.2180     1.6030    46.4170 ca         1 Y0E      -0.100500
     27 C29         16.4580     2.8510    48.0660 ca         1 Y0E      -0.107000
     28 C30         17.2030     3.4380    47.0470 ca         1 Y0E      -0.112000
     29 C31         16.9570     3.1070    45.7200 ca         1 Y0E      -0.100500
     30 C32         14.4420     1.4660    43.5200 ca         1 Y0E      -0.085500
     31 C33         14.2210     1.0950    42.2020 ca         1 Y0E      -0.114000
     32 C34         15.9120     2.7660    39.1210 ce         1 Y0E      -0.290200
     33 C35         16.5690     3.4670    38.2030 c2         1 Y0E      -0.234000
     34 H1          19.0160    -1.5240    41.9690 ha         1 Y0E       0.113000
     35 H2          16.6730    -1.0710    46.2960 ha         1 Y0E       0.113000
     36 H3          12.7760     1.5100    39.5890 h4         1 Y0E       0.021100
     37 H4          10.4340    -2.5750    38.3200 ha         1 Y0E       0.124000
     38 H5          12.8460    -2.7210    38.9250 ha         1 Y0E       0.121000
     39 H6          17.7830     1.9630    43.3850 ha         1 Y0E       0.120500
     40 H7          14.8820     1.4640    48.5280 ha         1 Y0E       0.113500
     41 H8          14.9940    -1.0670    38.7910 h1         1 Y0E       0.094700
     42 H9          16.7370    -1.5340    40.3280 hn         1 Y0E       0.316500
     43 H10         15.7410    -3.3650    42.4110 h1         1 Y0E       0.085700
     44 H11         17.9260    -4.5610    42.1480 hc         1 Y0E       0.044700
     45 H12         16.9930    -4.5030    40.6410 hc         1 Y0E       0.044700
     46 H13         18.3820    -3.4320    40.8670 hc         1 Y0E       0.044700
     47 H14         20.0410    -0.2270    43.7880 ha         1 Y0E       0.113000
     48 H15         18.8760     0.0090    45.9630 ha         1 Y0E       0.115000
     49 H16         15.6480    -2.3790    44.4710 ha         1 Y0E       0.113000
     50 H17          9.3110    -0.3580    38.4000 h4         1 Y0E       0.018100
     51 H18         17.4030     1.2680    41.0690 ha         1 Y0E       0.127500
     52 H19         14.4610     0.8660    46.1830 ha         1 Y0E       0.114500
     53 H20         16.6510     3.1070    49.1000 ha         1 Y0E       0.114000
     54 H21         17.9750     4.1590    47.2850 ha         1 Y0E       0.113500
     55 H22         17.5350     3.5810    44.9380 ha         1 Y0E       0.114500
     56 H23         13.6000     1.5120    44.1970 ha         1 Y0E       0.120500
     57 H24         13.2200     0.8480    41.8780 ha         1 Y0E       0.127500
     58 H25         15.6360     3.2120    40.0660 ha         1 Y0E       0.195000
     59 H26         16.8380     4.5010    38.3760 ha         1 Y0E       0.177500
     60 H27         16.8570     3.0220    37.2580 ha         1 Y0E       0.177500
     61 C05         14.7740    -1.6800    40.8190 c          1 Y0E       0.596100
     62 C02         15.5060     1.3580    38.8680 c          1 Y0E       0.602300
@<TRIPOS>BOND
     1     1    16 ar  
     2     1    17 ar  
     3     1    34 1   
     4     2    18 ar  
     5     2    19 ar  
     6     2    35 1   
     7     3    21 ar  
     8     3    22 ar  
     9     3    36 1   
    10     4     5 ar  
    11     4    23 ar  
    12     4    37 1   
    13     5    21 ar  
    14     5    38 1   
    15     6    11 1   
    16     6    24 ar  
    17     6    31 ar  
    18     7    24 ar  
    19     7    25 ar  
    20     7    39 1   
    21     8    25 1   
    22     8    26 ar  
    23     8    29 ar  
    24     9    26 ar  
    25     9    27 ar  
    26     9    40 1   
    27    10    62 2   
    28    11    12 1   
    29    11    62 1   
    30    12    21 1   
    31    12    41 1   
    32    12    61 1   
    33    13    14 1   
    34    13    42 1   
    35    13    61 1   
    36    14    15 1   
    37    14    16 1   
    38    14    43 1   
    39    15    44 1   
    40    15    45 1   
    41    15    46 1   
    42    16    19 ar  
    43    17    18 ar  
    44    17    47 1   
    45    18    48 1   
    46    19    49 1   
    47    20    61 2   
    48    22    23 ar  
    49    23    50 1   
    50    24    51 1   
    51    25    30 ar  
    52    26    52 1   
    53    27    28 ar  
    54    27    53 1   
    55    28    29 ar  
    56    28    54 1   
    57    29    55 1   
    58    30    31 ar  
    59    30    56 1   
    60    31    57 1   
    61    32    33 2   
    62    32    58 1   
    63    32    62 1   
    64    33    59 1   
    65    33    60 1   
@<TRIPOS>SUBSTRUCTURE
     1 Y0E         1 TEMP              0 ****  ****    0 ROOT
