@<TRIPOS>MOLECULE
Y0E
   62    65     1     0     0
SMALL
No Charge or Current Charge


@<TRIPOS>ATOM
      1 C10         18.4530    -1.4940    42.8790 ca         1 Y0E      -0.094500
      2 C13         17.6200    -1.0430    45.5230 ca         1 Y0E      -0.113000
      3 C17         12.1880     0.4160    39.4580 ca         1 Y0E       0.348900
      4 C20         11.1390    -1.5570    37.8640 ca         1 Y0E      -0.162000
      5 C21         12.4710    -1.6820    38.2890 ca         1 Y0E      -0.048000
      6 C22         15.3730     0.8800    41.2930 ca         1 Y0E      -0.053000
      7 C24         16.8140     1.9020    42.9860 ca         1 Y0E      -0.085500
      8 C26         16.0710     2.1530    45.4040 cp         1 Y0E      -0.032000
      9 C28         15.7190     1.8320    47.8190 ca         1 Y0E      -0.112000
     10 O01         15.3240     1.0400    37.6600 o          1 Y0E      -0.591100
     11 N03         15.1110     0.5470    39.9080 n          1 Y0E      -0.246400
     12 C04         14.4750    -0.7800    39.5860 c3         1 Y0E       0.084000
     13 N06         15.9240    -1.9260    41.2560 ns         1 Y0E      -0.496900
     14 C07         16.3120    -2.7910    42.3630 c3         1 Y0E       0.156000
     15 C08         16.9660    -4.0870    41.8470 c3         1 Y0E      -0.098100
     16 C09         17.2160    -2.0140    43.3170 ca         1 Y0E      -0.106300
     17 C11         19.2630    -0.7520    43.7560 ca         1 Y0E      -0.113000
     18 C12         18.8470    -0.5260    45.0780 ca         1 Y0E      -0.101000
     19 C14         16.8050    -1.7780    44.6450 ca         1 Y0E      -0.094500
     20 O15         13.8310    -2.7410    40.9240 o          1 Y0E      -0.591100
     21 C16         13.0140    -0.6770    39.1130 ca         1 Y0E      -0.129300
     22 N18         10.9030     0.5390    39.0490 nb         1 Y0E      -0.667000
     23 C19         10.3930    -0.4390    38.2660 ca         1 Y0E       0.336900
     24 C23         16.5830     1.5030    41.6590 ca         1 Y0E      -0.114000
     25 C25         15.8230     1.7380    43.9850 cp         1 Y0E      -0.032000
     26 C27         15.4800     1.4510    46.4870 ca         1 Y0E      -0.100500
     27 C29         16.5520     2.9260    48.0990 ca         1 Y0E      -0.107000
     28 C30         17.1450     3.6390    47.0450 ca         1 Y0E      -0.112000
     29 C31         16.9080     3.2570    45.7140 ca         1 Y0E      -0.100500
     30 C32         14.5850     1.1760    43.5900 ca         1 Y0E      -0.085500
     31 C33         14.3570     0.7710    42.2640 ca         1 Y0E      -0.114000
     32 C34         15.6870     2.8650    39.1130 ce         1 Y0E      -0.290200
     33 C35         16.3680     3.6790    38.2680 c2         1 Y0E      -0.234000
     34 H1          18.7850    -1.6570    41.8570 ha         1 Y0E       0.113000
     35 H2          17.2970    -0.8670    46.5460 ha         1 Y0E       0.113000
     36 H3          12.5600     1.2330    40.0740 h4         1 Y0E       0.021100
     37 H4          10.6850    -2.3140    37.2310 ha         1 Y0E       0.124000
     38 H5          13.0650    -2.5420    37.9860 ha         1 Y0E       0.121000
     39 H6          17.7800     2.3270    43.2420 ha         1 Y0E       0.120500
     40 H7          15.2610     1.2750    48.6330 ha         1 Y0E       0.113500
     41 H8          15.0390    -1.1690    38.7290 h1         1 Y0E       0.094700
     42 H9          16.5510    -1.1700    41.0090 hn         1 Y0E       0.316500
     43 H10         15.4020    -3.0750    42.9110 h1         1 Y0E       0.085700
     44 H11         17.2550    -4.7290    42.6880 hc         1 Y0E       0.044700
     45 H12         16.2650    -4.6460    41.2160 hc         1 Y0E       0.044700
     46 H13         17.8630    -3.8690    41.2550 hc         1 Y0E       0.044700
     47 H14         20.2130    -0.3500    43.4090 ha         1 Y0E       0.113000
     48 H15         19.4730     0.0510    45.7560 ha         1 Y0E       0.115000
     49 H16         15.8510    -2.1620    45.0000 ha         1 Y0E       0.113000
     50 H17          9.3570    -0.3180    37.9500 h4         1 Y0E       0.018100
     51 H18         17.3720     1.6410    40.9230 ha         1 Y0E       0.127500
     52 H19         14.8460     0.5900    46.2950 ha         1 Y0E       0.114500
     53 H20         16.7370     3.2210    49.1300 ha         1 Y0E       0.114000
     54 H21         17.7880     4.4900    47.2600 ha         1 Y0E       0.113500
     55 H22         17.3680     3.8320    44.9150 ha         1 Y0E       0.114500
     56 H23         13.7840     1.0640    44.3150 ha         1 Y0E       0.120500
     57 H24         13.3880     0.3520    42.0080 ha         1 Y0E       0.127500
     58 H25         15.4050     3.2280    40.1000 ha         1 Y0E       0.195000
     59 H26         16.6170     4.7060    38.5370 ha         1 Y0E       0.177500
     60 H27         16.6970     3.3440    37.2820 ha         1 Y0E       0.177500
     61 C05         14.6910    -1.9160    40.6380 c          1 Y0E       0.596100
     62 C02         15.3530     1.4340    38.8210 c          1 Y0E       0.602300
@<TRIPOS>BOND
     1     1    16 ar  
     2     1    17 ar  
     3     1    34 1   
     4     2    18 ar  
     5     2    19 ar  
     6     2    35 1   
     7     3    21 ar  
     8     3    22 ar  
     9     3    36 1   
    10     4     5 ar  
    11     4    23 ar  
    12     4    37 1   
    13     5    21 ar  
    14     5    38 1   
    15     6    11 1   
    16     6    24 ar  
    17     6    31 ar  
    18     7    24 ar  
    19     7    25 ar  
    20     7    39 1   
    21     8    25 1   
    22     8    26 ar  
    23     8    29 ar  
    24     9    26 ar  
    25     9    27 ar  
    26     9    40 1   
    27    10    62 2   
    28    11    12 1   
    29    11    62 1   
    30    12    21 1   
    31    12    41 1   
    32    12    61 1   
    33    13    14 1   
    34    13    42 1   
    35    13    61 1   
    36    14    15 1   
    37    14    16 1   
    38    14    43 1   
    39    15    44 1   
    40    15    45 1   
    41    15    46 1   
    42    16    19 ar  
    43    17    18 ar  
    44    17    47 1   
    45    18    48 1   
    46    19    49 1   
    47    20    61 2   
    48    22    23 ar  
    49    23    50 1   
    50    24    51 1   
    51    25    30 ar  
    52    26    52 1   
    53    27    28 ar  
    54    27    53 1   
    55    28    29 ar  
    56    28    54 1   
    57    29    55 1   
    58    30    31 ar  
    59    30    56 1   
    60    31    57 1   
    61    32    33 2   
    62    32    58 1   
    63    32    62 1   
    64    33    59 1   
    65    33    60 1   
@<TRIPOS>SUBSTRUCTURE
     1 Y0E         1 TEMP              0 ****  ****    0 ROOT
