@<TRIPOS>MOLECULE
Y0G
   43    45     1     0     0
SMALL
No Charge or Current Charge


@<TRIPOS>ATOM
      1 N1         -17.7880    15.6680    26.7650 n          1 Y0G      -0.432800
      2 C4         -15.4710    18.6150    26.4590 ca         1 Y0G      -0.122000
      3 C5         -17.1070    16.8130    27.2420 c          1 Y0G       0.669100
      4 C6         -17.7870    15.3030    25.3140 c6         1 Y0G       0.093500
      5 C7         -18.2860    13.8740    24.9760 c6         1 Y0G       0.085500
      6 C8         -19.3230    13.6560    27.1830 c6         1 Y0G       0.085500
      7 C10        -20.3180    12.4240    25.1920 c          1 Y0G       0.548600
      8 C13        -23.6740    11.3400    26.2620 cc         1 Y0G      -0.198000
      9 C15        -14.1560    18.6150    25.9580 ca         1 Y0G      -0.042000
     10 N          -16.2300    17.4170    26.3490 ns         1 Y0G      -0.179000
     11 C          -13.4900    23.3090    27.2170 c3         1 Y0G       0.146900
     12 C1         -13.8810    20.9500    26.6070 ca         1 Y0G       0.176100
     13 C11        -21.6610    12.1840    25.8260 cd         1 Y0G       0.055500
     14 C12        -23.4710    12.4620    27.0170 cd         1 Y0G       0.139900
     15 C14        -22.5130    11.1650    25.4860 cc         1 Y0G      -0.112000
     16 C16        -13.3660    19.7750    26.0410 ca         1 Y0G      -0.163000
     17 C2         -15.2050    20.9670    27.0870 ca         1 Y0G      -0.246000
     18 C3         -15.9940    19.8090    27.0090 ca         1 Y0G       0.221000
     19 C9         -18.9060    15.0930    27.5680 c6         1 Y0G       0.093500
     20 F          -17.2810    19.8810    27.4160 f          1 Y0G      -0.170000
     21 N2         -19.5060    13.4650    25.7180 n          1 Y0G      -0.406800
     22 O1         -22.2410    13.0240    26.7590 os         1 Y0G      -0.229000
     23 O2         -19.9410    11.7710    24.2240 o          1 Y0G      -0.584100
     24 O3         -17.2690    17.2170    28.3870 o          1 Y0G      -0.624100
     25 H5         -18.4270    16.0230    24.7850 h1         1 Y0G       0.058700
     26 H6         -16.7750    15.4030    24.8980 h1         1 Y0G       0.058700
     27 H8         -18.4660    13.8170    23.8930 h1         1 Y0G       0.063200
     28 H7         -17.4850    13.1580    25.2080 h1         1 Y0G       0.063200
     29 H9         -20.2080    13.3790    27.7630 h1         1 Y0G       0.063200
     30 H10        -18.5260    12.9740    27.5110 h1         1 Y0G       0.063200
     31 H14        -24.5550    10.7060    26.2510 ha         1 Y0G       0.147000
     32 H16        -13.7390    17.7120    25.5160 ha         1 Y0G       0.125000
     33 H4         -16.1240    16.9320    25.4690 hn         1 Y0G       0.156000
     34 H          -12.6820    24.0490    27.1610 h1         1 Y0G       0.044367
     35 H1         -14.3530    23.7060    26.6670 h1         1 Y0G       0.044367
     36 H2         -13.7690    23.1900    28.2720 h1         1 Y0G       0.044367
     37 H13        -24.1060    12.9540    27.7430 h4         1 Y0G       0.056100
     38 H15        -22.3380    10.3740    24.7620 ha         1 Y0G       0.156000
     39 H17        -12.3480    19.7630    25.6610 ha         1 Y0G       0.134000
     40 H3         -15.6440    21.8640    27.5110 ha         1 Y0G       0.137000
     41 H12        -19.7800    15.7500    27.4560 h1         1 Y0G       0.058700
     42 H11        -18.6360    15.0960    28.6330 h1         1 Y0G       0.058700
     43 O          -13.0580    22.0560    26.6580 os         1 Y0G      -0.337100
@<TRIPOS>BOND
     1     1     3 1   
     2     1     4 1   
     3     1    19 1   
     4     2     9 ar  
     5     2    10 1   
     6     2    18 ar  
     7     3    10 1   
     8     3    24 2   
     9     4     5 1   
    10     4    25 1   
    11     4    26 1   
    12     5    21 1   
    13     5    27 1   
    14     5    28 1   
    15     6    19 1   
    16     6    21 1   
    17     6    29 1   
    18     6    30 1   
    19     7    13 1   
    20     7    21 1   
    21     7    23 2   
    22     8    14 2   
    23     8    15 1   
    24     8    31 1   
    25     9    16 ar  
    26     9    32 1   
    27    10    33 1   
    28    11    34 1   
    29    11    35 1   
    30    11    36 1   
    31    11    43 1   
    32    12    16 ar  
    33    12    17 ar  
    34    12    43 1   
    35    13    15 2   
    36    13    22 1   
    37    14    22 1   
    38    14    37 1   
    39    15    38 1   
    40    16    39 1   
    41    17    18 ar  
    42    17    40 1   
    43    18    20 1   
    44    19    41 1   
    45    19    42 1   
@<TRIPOS>SUBSTRUCTURE
     1 Y0G         1 TEMP              0 ****  ****    0 ROOT
