@<TRIPOS>MOLECULE
Y0G
   43    45     1     0     0
SMALL
abcg2


@<TRIPOS>ATOM
      1 N1         -18.1000    15.9270    26.2460 n          1 Y0G      -0.432800
      2 C4         -15.6480    18.6040    26.1630 ca         1 Y0G      -0.122000
      3 C5         -17.2940    16.9330    26.6930 c          1 Y0G       0.669100
      4 C6         -18.2090    15.4720    24.8730 c6         1 Y0G       0.093500
      5 C7         -18.2680    13.9500    24.8020 c6         1 Y0G       0.085500
      6 C8         -19.1400    13.8700    27.0410 c6         1 Y0G       0.085500
      7 C10        -20.1750    12.5020    25.2170 c          1 Y0G       0.548600
      8 C13        -23.2190    11.3200    26.9060 cc         1 Y0G      -0.198000
      9 C15        -14.2740    18.3950    26.2250 ca         1 Y0G      -0.042000
     10 N          -16.5300    17.5810    25.7590 ns         1 Y0G      -0.179000
     11 C          -13.4540    22.8470    27.7520 c3         1 Y0G       0.146900
     12 C1         -13.9050    20.6510    26.9720 ca         1 Y0G       0.176100
     13 C11        -21.3850    12.2040    26.0090 cd         1 Y0G       0.055500
     14 C12        -23.1150    12.6250    27.2560 cd         1 Y0G       0.139900
     15 C14        -22.0940    11.0470    26.0800 cc         1 Y0G      -0.112000
     16 C16        -13.4060    19.3960    26.6160 ca         1 Y0G      -0.163000
     17 C2         -15.2770    20.8890    26.9150 ca         1 Y0G      -0.246000
     18 C3         -16.1100    19.8640    26.5080 ca         1 Y0G       0.221000
     19 C9         -19.1110    15.3830    27.1340 c6         1 Y0G       0.093500
     20 F          -17.4240    20.1070    26.4450 f          1 Y0G      -0.170000
     21 N2         -19.3240    13.4540    25.6620 n          1 Y0G      -0.406800
     22 O1         -22.0110    13.1700    26.7180 os         1 Y0G      -0.229000
     23 O2         -20.0060    11.8910    24.1710 o          1 Y0G      -0.584100
     24 O3         -17.2250    17.2390    27.8760 o          1 Y0G      -0.624100
     25 H5         -19.1010    15.8940    24.3980 h1         1 Y0G       0.058700
     26 H6         -17.3460    15.7780    24.2870 h1         1 Y0G       0.058700
     27 H8         -18.4520    13.6490    23.7740 h1         1 Y0G       0.063200
     28 H7         -17.3060    13.5280    25.1100 h1         1 Y0G       0.063200
     29 H9         -19.9140    13.4730    27.6900 h1         1 Y0G       0.063200
     30 H10        -18.1850    13.4660    27.3960 h1         1 Y0G       0.063200
     31 H14        -24.0010    10.6380    27.1950 ha         1 Y0G       0.147000
     32 H16        -13.8860    17.4200    25.9620 ha         1 Y0G       0.125000
     33 H4         -16.7100    17.4910    24.7730 hn         1 Y0G       0.156000
     34 H          -12.5690    23.4120    28.0320 h1         1 Y0G       0.044367
     35 H1         -13.9620    23.3700    26.9380 h1         1 Y0G       0.044367
     36 H2         -14.1250    22.7950    28.6130 h1         1 Y0G       0.044367
     37 H13        -23.7330    13.2760    27.8540 h4         1 Y0G       0.056100
     38 H15        -21.8400    10.1120    25.6080 ha         1 Y0G       0.156000
     39 H17        -12.3400    19.2120    26.6570 ha         1 Y0G       0.134000
     40 H3         -15.7130    21.8440    27.1750 ha         1 Y0G       0.137000
     41 H12        -20.0980    15.7830    26.8700 h1         1 Y0G       0.058700
     42 H11        -18.8920    15.6780    28.1560 h1         1 Y0G       0.058700
     43 O          -13.0030    21.5660    27.3560 os         1 Y0G      -0.337100
@<TRIPOS>BOND
     1     1     3 1   
     2     1     4 1   
     3     1    19 1   
     4     2     9 ar  
     5     2    10 1   
     6     2    18 ar  
     7     3    10 1   
     8     3    24 2   
     9     4     5 1   
    10     4    25 1   
    11     4    26 1   
    12     5    21 1   
    13     5    27 1   
    14     5    28 1   
    15     6    19 1   
    16     6    21 1   
    17     6    29 1   
    18     6    30 1   
    19     7    13 1   
    20     7    21 1   
    21     7    23 2   
    22     8    14 2   
    23     8    15 1   
    24     8    31 1   
    25     9    16 ar  
    26     9    32 1   
    27    10    33 1   
    28    11    34 1   
    29    11    35 1   
    30    11    36 1   
    31    11    43 1   
    32    12    16 ar  
    33    12    17 ar  
    34    12    43 1   
    35    13    15 2   
    36    13    22 1   
    37    14    22 1   
    38    14    37 1   
    39    15    38 1   
    40    16    39 1   
    41    17    18 ar  
    42    17    40 1   
    43    18    20 1   
    44    19    41 1   
    45    19    42 1   
@<TRIPOS>SUBSTRUCTURE
     1 Y0G         1 TEMP              0 ****  ****    0 ROOT
