@<TRIPOS>MOLECULE
Y0H
   24    25     1     0     0
SMALL
abcg2


@<TRIPOS>ATOM
      1 N1          21.6770    14.3480    -3.5540 nv         1 Y0H      -1.046000
      2 C4          18.4690    11.7830    -0.7450 ca         1 Y0H      -0.110500
      3 C5          17.6390    12.1100     0.3300 ca         1 Y0H      -0.083500
      4 C6          16.8380    11.1560     0.9340 ca         1 Y0H      -0.110000
      5 C7          18.4700    10.4640    -1.1970 ca         1 Y0H      -0.083500
      6 C8          17.6740     9.4980    -0.6020 ca         1 Y0H      -0.110000
      7 N           20.1390    14.7070    -1.7680 na         1 Y0H       0.113800
      8 C           20.3680    16.1190    -1.5960 c3         1 Y0H       0.068900
      9 C1          20.7700    13.8820    -2.6300 cc         1 Y0H       0.201000
     10 C2          20.2530    12.6190    -2.4150 cd         1 Y0H      -0.276000
     11 C3          19.3150    12.7960    -1.3780 cd         1 Y0H       0.329500
     12 C9          16.8610     9.8520     0.4620 ca         1 Y0H       0.122000
     13 N2          19.2660    14.0570    -0.9880 nc         1 Y0H      -0.523800
     14 CL          15.8590     8.6530     1.2130 cl         1 Y0H      -0.208000
     15 H1          22.3740    14.9820    -3.1900 hn         1 Y0H       0.447000
     16 H2          22.1250    13.6050    -4.0680 hn         1 Y0H       0.447000
     17 H3          17.6170    13.1250     0.7040 ha         1 Y0H       0.125000
     18 H4          16.2020    11.4290     1.7650 ha         1 Y0H       0.127500
     19 H5          19.0960    10.1720    -2.0300 ha         1 Y0H       0.125000
     20 H6          17.6900     8.4800    -0.9680 ha         1 Y0H       0.127500
     21 H7          19.4710    16.5690    -1.1810 h1         1 Y0H       0.057033
     22 H8          21.2060    16.3130    -0.9250 h1         1 Y0H       0.057033
     23 H9          20.5760    16.5810    -2.5590 h1         1 Y0H       0.057033
     24 H10         20.5330    11.7160    -2.9310 ha         1 Y0H       0.144000
@<TRIPOS>BOND
     1     1     9 1   
     2     1    15 1   
     3     1    16 1   
     4     2     3 ar  
     5     2     5 ar  
     6     2    11 1   
     7     3     4 ar  
     8     3    17 1   
     9     4    12 ar  
    10     4    18 1   
    11     5     6 ar  
    12     5    19 1   
    13     6    12 ar  
    14     6    20 1   
    15     7     8 1   
    16     7     9 1   
    17     7    13 1   
    18     8    21 1   
    19     8    22 1   
    20     8    23 1   
    21     9    10 2   
    22    10    11 1   
    23    10    24 1   
    24    11    13 2   
    25    12    14 1   
@<TRIPOS>SUBSTRUCTURE
     1 Y0H         1 TEMP              0 ****  ****    0 ROOT
