@<TRIPOS>MOLECULE
Y0H
   24    25     1     0     0
SMALL
No Charge or Current Charge


@<TRIPOS>ATOM
      1 N1          21.8360    14.1970    -3.4700 nv         1 Y0H      -1.046000
      2 C4          18.4620    11.7940    -0.7090 ca         1 Y0H      -0.110500
      3 C5          17.6120    12.0960     0.3830 ca         1 Y0H      -0.083500
      4 C6          16.7940    11.1040     0.9520 ca         1 Y0H      -0.110000
      5 C7          18.4570    10.4750    -1.2220 ca         1 Y0H      -0.083500
      6 C8          17.6370     9.4860    -0.6500 ca         1 Y0H      -0.110000
      7 N           20.1680    14.7380    -1.7460 na         1 Y0H       0.113800
      8 C           20.3730    16.1910    -1.6400 c3         1 Y0H       0.068900
      9 C1          20.8470    13.8530    -2.5880 cc         1 Y0H       0.201000
     10 C2          20.3030    12.6450    -2.3150 cd         1 Y0H      -0.276000
     11 C3          19.3160    12.8410    -1.3200 cd         1 Y0H       0.329500
     12 C9          16.8080     9.8000     0.4360 ca         1 Y0H       0.122000
     13 N2          19.2190    14.1120    -0.9570 nc         1 Y0H      -0.523800
     14 Cl          15.7820     8.5610     1.1480 cl         1 Y0H      -0.208000
     15 H1          22.2110    15.1450    -3.4910 hn         1 Y0H       0.447000
     16 H2          22.3420    13.4740    -3.9810 hn         1 Y0H       0.447000
     17 H3          17.5830    13.1000     0.8000 ha         1 Y0H       0.125000
     18 H4          16.1480    11.3470     1.7920 ha         1 Y0H       0.127500
     19 H5          19.0830    10.2050    -2.0670 ha         1 Y0H       0.125000
     20 H6          17.6430     8.4760    -1.0520 ha         1 Y0H       0.127500
     21 H7          19.6680    16.6210    -0.9190 h1         1 Y0H       0.057033
     22 H8          21.3980    16.3920    -1.3050 h1         1 Y0H       0.057033
     23 H9          20.2130    16.6550    -2.6210 h1         1 Y0H       0.057033
     24 H10         20.5850    11.7090    -2.7770 ha         1 Y0H       0.144000
@<TRIPOS>BOND
     1     1     9 1   
     2     1    15 1   
     3     1    16 1   
     4     2     3 ar  
     5     2     5 ar  
     6     2    11 1   
     7     3     4 ar  
     8     3    17 1   
     9     4    12 ar  
    10     4    18 1   
    11     5     6 ar  
    12     5    19 1   
    13     6    12 ar  
    14     6    20 1   
    15     7     8 1   
    16     7     9 1   
    17     7    13 1   
    18     8    21 1   
    19     8    22 1   
    20     8    23 1   
    21     9    10 2   
    22    10    11 1   
    23    10    24 1   
    24    11    13 2   
    25    12    14 1   
@<TRIPOS>SUBSTRUCTURE
     1 Y0H         1 TEMP              0 ****  ****    0 ROOT
