@<TRIPOS>MOLECULE
Y0I
   64    67     1     0     0
SMALL
abcg2


@<TRIPOS>ATOM
      1 C10         11.0980     2.1250    23.9020 ca         1 Y0I      -0.093000
      2 C13         10.0770     1.3400    26.3580 ca         1 Y0I      -0.114000
      3 C17          7.3630    -0.1070    18.6100 ca         1 Y0I       0.373900
      4 C20          5.5600     1.7610    17.8120 ca         1 Y0I      -0.164000
      5 C21          5.7720     1.5730    19.1710 ca         1 Y0I      -0.056000
      6 C22          8.5210    -1.2550    22.1290 ca         1 Y0I      -0.069000
      7 C24         10.8400    -1.8870    22.1160 ca         1 Y0I      -0.092000
      8 C26         12.1670    -2.0020    24.2420 cp         1 Y0I      -0.037000
      9 C28         13.3480    -2.7490    26.2240 ca         1 Y0I      -0.113000
     10 O01          5.1740    -1.5370    20.9260 o          1 Y0I      -0.588100
     11 N03          7.3010    -0.9500    21.4330 n          1 Y0I      -0.244400
     12 C04          6.9770     0.4440    21.0630 c3         1 Y0I       0.101000
     13 N06          7.8970     2.0920    22.5880 ns         1 Y0I      -0.499900
     14 C07          8.8660     3.0320    23.1570 c3         1 Y0I       0.158000
     15 C08          8.1250     4.2480    23.7070 c3         1 Y0I      -0.100100
     16 C09          9.7540     2.3570    24.1870 ca         1 Y0I      -0.107300
     17 C11         11.9280     1.5110    24.8350 ca         1 Y0I      -0.114000
     18 C12         11.4200     1.1180    26.0670 ca         1 Y0I      -0.102000
     19 C14          9.2500     1.9530    25.4240 ca         1 Y0I      -0.093000
     20 O15          9.1490     1.4790    20.7980 o          1 Y0I      -0.583100
     21 C16          6.6940     0.6200    19.5890 ca         1 Y0I      -0.130300
     22 N18          7.1680     0.0620    17.2990 nb         1 Y0I      -0.669000
     23 C19          6.2810     0.9850    16.9140 ca         1 Y0I       0.340900
     24 C23          9.6620    -1.6310    21.4310 ca         1 Y0I      -0.096500
     25 C25         10.9030    -1.7750    23.5100 cp         1 Y0I      -0.020000
     26 C27         12.1640    -2.5740    25.5190 ca         1 Y0I      -0.098500
     27 C29         14.5610    -2.3550    25.6660 ca         1 Y0I      -0.106000
     28 C30         14.5780    -1.7890    24.3950 ca         1 Y0I      -0.113000
     29 C31         13.3930    -1.6160    23.6900 ca         1 Y0I      -0.098500
     30 C32          9.7390    -1.4130    24.1960 ca         1 Y0I      -0.092000
     31 C33          8.5620    -1.1510    23.5140 ca         1 Y0I      -0.096500
     32 C34          6.5780    -3.2730    21.8020 c3         1 Y0I      -0.210700
     33 C35          5.5540    -4.2310    21.2780 c2         1 Y0I       0.439200
     34 N37          4.8920    -4.9870    22.0520 n2         1 Y0I      -0.748100
     35 H1          11.4960     2.4250    22.9410 ha         1 Y0I       0.113500
     36 H2           9.6710     1.0280    27.3130 ha         1 Y0I       0.114000
     37 H3           8.0780    -0.8690    18.8940 h4         1 Y0I       0.022100
     38 H4           4.8460     2.4910    17.4530 ha         1 Y0I       0.123000
     39 H5           5.2230     2.1560    19.9010 ha         1 Y0I       0.115000
     40 H6          11.7190    -2.1850    21.5600 ha         1 Y0I       0.122000
     41 H7          13.3240    -3.1970    27.2100 ha         1 Y0I       0.114500
     42 H8           6.0780     0.7310    21.6100 h1         1 Y0I       0.066700
     43 H9           7.0490     1.9170    23.1060 hn         1 Y0I       0.312500
     44 H10          9.4960     3.3430    22.3260 h1         1 Y0I       0.084700
     45 H11          8.8390     4.9600    24.1240 hc         1 Y0I       0.045367
     46 H12          7.5620     4.7380    22.9120 hc         1 Y0I       0.045367
     47 H13          7.4290     3.9610    24.4970 hc         1 Y0I       0.045367
     48 H14         12.9670     1.3280    24.5930 ha         1 Y0I       0.114000
     49 H15         12.0610     0.6290    26.7890 ha         1 Y0I       0.115000
     50 H16          8.2060     2.1120    25.6620 ha         1 Y0I       0.113500
     51 H17          6.1400     1.1050    15.8460 h4         1 Y0I       0.018100
     52 H18          9.6280    -1.7210    20.3540 ha         1 Y0I       0.124000
     53 H19         11.2290    -2.8930    25.9610 ha         1 Y0I       0.115500
     54 H20         15.4840    -2.4880    26.2170 ha         1 Y0I       0.115000
     55 H21         15.5140    -1.4700    23.9550 ha         1 Y0I       0.114500
     56 H22         13.4170    -1.1480    22.7150 ha         1 Y0I       0.115500
     57 H23          9.7660    -1.2910    25.2680 ha         1 Y0I       0.122000
     58 H24          7.6750    -0.8430    24.0520 ha         1 Y0I       0.124000
     59 H25          6.5960    -3.3050    22.8930 hc         1 Y0I       0.085200
     60 H26          7.5690    -3.5770    21.4550 hc         1 Y0I       0.085200
     61 H27          5.4330    -4.2490    20.1910 h4         1 Y0I      -0.027200
     62 H29          4.2640    -5.5880    21.5170 hn         1 Y0I       0.380400
     63 C05          8.1300     1.3840    21.4740 c          1 Y0I       0.594100
     64 C02          6.2830    -1.8530    21.3480 c          1 Y0I       0.604100
@<TRIPOS>BOND
     1     1    16 ar  
     2     1    17 ar  
     3     1    35 1   
     4     2    18 ar  
     5     2    19 ar  
     6     2    36 1   
     7     3    21 ar  
     8     3    22 ar  
     9     3    37 1   
    10     4     5 ar  
    11     4    23 ar  
    12     4    38 1   
    13     5    21 ar  
    14     5    39 1   
    15     6    11 1   
    16     6    24 ar  
    17     6    31 ar  
    18     7    24 ar  
    19     7    25 ar  
    20     7    40 1   
    21     8    25 1   
    22     8    26 ar  
    23     8    29 ar  
    24     9    26 ar  
    25     9    27 ar  
    26     9    41 1   
    27    10    64 2   
    28    11    12 1   
    29    11    64 1   
    30    12    21 1   
    31    12    42 1   
    32    12    63 1   
    33    13    14 1   
    34    13    43 1   
    35    13    63 1   
    36    14    15 1   
    37    14    16 1   
    38    14    44 1   
    39    15    45 1   
    40    15    46 1   
    41    15    47 1   
    42    16    19 ar  
    43    17    18 ar  
    44    17    48 1   
    45    18    49 1   
    46    19    50 1   
    47    20    63 2   
    48    22    23 ar  
    49    23    51 1   
    50    24    52 1   
    51    25    30 ar  
    52    26    53 1   
    53    27    28 ar  
    54    27    54 1   
    55    28    29 ar  
    56    28    55 1   
    57    29    56 1   
    58    30    31 ar  
    59    30    57 1   
    60    31    58 1   
    61    32    33 1   
    62    32    59 1   
    63    32    60 1   
    64    32    64 1   
    65    33    34 2   
    66    33    61 1   
    67    34    62 1   
@<TRIPOS>SUBSTRUCTURE
     1 Y0I         1 TEMP              0 ****  ****    0 ROOT
