@<TRIPOS>MOLECULE
Y0I
   64    67     1     0     0
SMALL
No Charge or Current Charge


@<TRIPOS>ATOM
      1 C10         11.3440     2.1670    23.6550 ca         1 Y0I      -0.093000
      2 C13         10.6940     1.2860    26.2400 ca         1 Y0I      -0.114000
      3 C17          8.1920     0.8290    18.9270 ca         1 Y0I       0.373900
      4 C20          6.2180    -0.3440    17.4240 ca         1 Y0I      -0.164000
      5 C21          5.9460    -0.0590    18.7710 ca         1 Y0I      -0.056000
      6 C22          8.0570    -0.7590    22.4360 ca         1 Y0I      -0.069000
      7 C24         10.3340    -1.5750    22.1240 ca         1 Y0I      -0.092000
      8 C26         11.8530    -2.0850    24.0960 cp         1 Y0I      -0.037000
      9 C28         13.1720    -3.2100    25.8410 ca         1 Y0I      -0.113000
     10 O01          4.4790    -0.6490    21.8640 o          1 Y0I      -0.588100
     11 N03          6.7770    -0.3660    21.9020 n          1 Y0I      -0.244400
     12 C04          6.6970     0.8640    21.0280 c3         1 Y0I       0.101000
     13 N06          8.1340     2.0610    22.7110 ns         1 Y0I      -0.499900
     14 C07          9.0060     3.0830    23.2740 c3         1 Y0I       0.158000
     15 C08          8.1940     4.1760    23.9980 c3         1 Y0I      -0.100100
     16 C09         10.0480     2.4000    24.1600 ca         1 Y0I      -0.107300
     17 C11         12.3070     1.5070    24.4370 ca         1 Y0I      -0.114000
     18 C12         11.9830     1.0660    25.7290 ca         1 Y0I      -0.102000
     19 C14          9.7290     1.9460    25.4590 ca         1 Y0I      -0.093000
     20 O15          7.5110     3.1640    20.8350 o          1 Y0I      -0.583100
     21 C16          6.9560     0.5390    19.5500 ca         1 Y0I      -0.130300
     22 N18          8.4570     0.5520    17.6290 nb         1 Y0I      -0.669000
     23 C19          7.4790    -0.0240    16.8940 ca         1 Y0I       0.340900
     24 C23          9.1070    -1.1510    21.5870 ca         1 Y0I      -0.096500
     25 C25         10.5330    -1.6660    23.5240 cp         1 Y0I      -0.020000
     26 C27         11.9310    -2.8330    25.2990 ca         1 Y0I      -0.098500
     27 C29         14.3630    -2.8460    25.1940 ca         1 Y0I      -0.106000
     28 C30         14.3110    -2.1060    24.0020 ca         1 Y0I      -0.113000
     29 C31         13.0700    -1.7310    23.4590 ca         1 Y0I      -0.098500
     30 C32          9.4350    -1.3560    24.3620 ca         1 Y0I      -0.092000
     31 C33          8.2090    -0.9310    23.8260 ca         1 Y0I      -0.096500
     32 C34          5.6710    -2.5580    22.6090 c3         1 Y0I      -0.210700
     33 C35          5.5220    -3.4690    21.4310 c2         1 Y0I       0.439200
     34 N37          5.2290    -4.7120    21.5650 n2         1 Y0I      -0.748100
     35 H1          11.6060     2.4920    22.6500 ha         1 Y0I       0.113500
     36 H2          10.4380     0.9370    27.2370 ha         1 Y0I       0.114000
     37 H3           9.0100     1.2810    19.4870 h4         1 Y0I       0.022100
     38 H4           5.4650    -0.8050    16.7910 ha         1 Y0I       0.123000
     39 H5           4.9740    -0.2960    19.1960 ha         1 Y0I       0.115000
     40 H6          11.1350    -1.8530    21.4440 ha         1 Y0I       0.122000
     41 H7          13.2090    -3.7860    26.7640 ha         1 Y0I       0.114500
     42 H8           5.6640     1.2270    21.0740 h1         1 Y0I       0.066700
     43 H9           8.0920     1.1680    23.1860 hn         1 Y0I       0.312500
     44 H10          9.5380     3.5700    22.4440 h1         1 Y0I       0.084700
     45 H11          8.8660     4.9060    24.4640 hc         1 Y0I       0.045367
     46 H12          7.5530     4.7110    23.2880 hc         1 Y0I       0.045367
     47 H13          7.5510     3.7500    24.7770 hc         1 Y0I       0.045367
     48 H14         13.3030     1.3310    24.0370 ha         1 Y0I       0.114000
     49 H15         12.7270     0.5470    26.3300 ha         1 Y0I       0.115000
     50 H16          8.7310     2.0900    25.8640 ha         1 Y0I       0.113500
     51 H17          7.7140    -0.2360    15.8520 h4         1 Y0I       0.018100
     52 H18          8.9830    -1.1330    20.5100 ha         1 Y0I       0.124000
     53 H19         11.0220    -3.1360    25.8120 ha         1 Y0I       0.115500
     54 H20         15.3230    -3.1370    25.6140 ha         1 Y0I       0.115000
     55 H21         15.2330    -1.8190    23.5000 ha         1 Y0I       0.114500
     56 H22         13.0540    -1.1430    22.5460 ha         1 Y0I       0.115500
     57 H23          9.5390    -1.4230    25.4410 ha         1 Y0I       0.122000
     58 H24          7.3880    -0.6960    24.5010 ha         1 Y0I       0.124000
     59 H25          4.8520    -2.7440    23.3110 hc         1 Y0I       0.085200
     60 H26          6.6260    -2.7870    23.0840 hc         1 Y0I       0.085200
     61 H27          5.6950    -3.0550    20.4410 h4         1 Y0I      -0.027200
     62 H29          5.1900    -5.1500    20.6320 hn         1 Y0I       0.380400
     63 C05          7.4770     2.1380    21.5020 c          1 Y0I       0.594100
     64 C02          5.5820    -1.1130    22.1230 c          1 Y0I       0.604100
@<TRIPOS>BOND
     1     1    16 ar  
     2     1    17 ar  
     3     1    35 1   
     4     2    18 ar  
     5     2    19 ar  
     6     2    36 1   
     7     3    21 ar  
     8     3    22 ar  
     9     3    37 1   
    10     4     5 ar  
    11     4    23 ar  
    12     4    38 1   
    13     5    21 ar  
    14     5    39 1   
    15     6    11 1   
    16     6    24 ar  
    17     6    31 ar  
    18     7    24 ar  
    19     7    25 ar  
    20     7    40 1   
    21     8    25 1   
    22     8    26 ar  
    23     8    29 ar  
    24     9    26 ar  
    25     9    27 ar  
    26     9    41 1   
    27    10    64 2   
    28    11    12 1   
    29    11    64 1   
    30    12    21 1   
    31    12    42 1   
    32    12    63 1   
    33    13    14 1   
    34    13    43 1   
    35    13    63 1   
    36    14    15 1   
    37    14    16 1   
    38    14    44 1   
    39    15    45 1   
    40    15    46 1   
    41    15    47 1   
    42    16    19 ar  
    43    17    18 ar  
    44    17    48 1   
    45    18    49 1   
    46    19    50 1   
    47    20    63 2   
    48    22    23 ar  
    49    23    51 1   
    50    24    52 1   
    51    25    30 ar  
    52    26    53 1   
    53    27    28 ar  
    54    27    54 1   
    55    28    29 ar  
    56    28    55 1   
    57    29    56 1   
    58    30    31 ar  
    59    30    57 1   
    60    31    58 1   
    61    32    33 1   
    62    32    59 1   
    63    32    60 1   
    64    32    64 1   
    65    33    34 2   
    66    33    61 1   
    67    34    62 1   
@<TRIPOS>SUBSTRUCTURE
     1 Y0I         1 TEMP              0 ****  ****    0 ROOT
