@<TRIPOS>MOLECULE
Y0J
   41    44     1     0     0
SMALL
abcg2


@<TRIPOS>ATOM
      1 N1         -15.3410    19.6760    25.4300 nc         1 Y0J      -0.639100
      2 N3         -19.1560    13.5140    25.6910 n          1 Y0J      -0.411800
      3 C4         -12.4960    21.7900    26.5500 ca         1 Y0J      -0.118000
      4 C5         -12.1920    21.0550    27.7000 ca         1 Y0J      -0.105000
      5 C6         -12.9160    19.9190    28.0480 ca         1 Y0J      -0.080000
      6 C7         -13.9330    19.5780    27.1860 ca         1 Y0J       0.019100
      7 C8         -18.0810    15.5920    25.0220 c6         1 Y0J       0.087500
      8 C10        -20.0940    12.6840    25.1800 c          1 Y0J       0.551600
      9 C13        -23.1200    11.4670    26.8770 cc         1 Y0J      -0.197000
     10 C15        -18.9110    13.8060    27.0910 c6         1 Y0J       0.087500
     11 C          -17.1670    16.9430    26.9140 c          1 Y0J       0.675100
     12 O          -17.0140    17.1650    28.0990 o          1 Y0J      -0.582100
     13 C1         -15.5920    18.6680    26.1920 cd         1 Y0J       0.621200
     14 C11        -21.2780    12.3540    25.9980 cd         1 Y0J       0.052500
     15 C12        -22.0620    11.2450    25.9520 cc         1 Y0J      -0.108000
     16 C14        -22.9050    12.6990    27.4000 cd         1 Y0J       0.141900
     17 C16        -18.9030    15.3050    27.3140 c6         1 Y0J       0.087500
     18 C2         -14.2610    20.2910    26.0380 ca         1 Y0J       0.083400
     19 C3         -13.5320    21.4240    25.7010 ca         1 Y0J      -0.062000
     20 C9         -18.1290    14.0790    24.8420 c6         1 Y0J       0.087500
     21 N2         -17.9470    15.9480    26.4250 n          1 Y0J      -0.424800
     22 O1         -14.7990    18.5260    27.2660 os         1 Y0J      -0.259700
     23 O2         -20.0210    12.2100    24.0550 o          1 Y0J      -0.581100
     24 O3         -21.7950    13.2450    26.8750 os         1 Y0J      -0.234000
     25 H2         -11.9070    22.6670    26.3170 ha         1 Y0J       0.117000
     26 H3         -11.3760    21.3750    28.3330 ha         1 Y0J       0.118000
     27 H4         -12.6870    19.3450    28.9360 ha         1 Y0J       0.136000
     28 H5         -18.9890    16.0380    24.6020 h1         1 Y0J       0.062950
     29 H6         -17.2290    15.9540    24.4510 h1         1 Y0J       0.062950
     30 H12        -19.6430    13.3380    27.7400 h1         1 Y0J       0.067450
     31 H13        -17.9340    13.3900    27.3590 h1         1 Y0J       0.067450
     32 H9         -21.9000    10.3740    25.3390 ha         1 Y0J       0.157000
     33 H11        -23.4420    13.2950    28.1200 h4         1 Y0J       0.056100
     34 H14        -19.9060    15.7040    27.1250 h1         1 Y0J       0.062950
     35 H15        -18.6420    15.5190    28.3460 h1         1 Y0J       0.062950
     36 H1         -13.7640    21.9980    24.8140 ha         1 Y0J       0.132000
     37 H7         -18.3340    13.8530    23.7990 h1         1 Y0J       0.067450
     38 H8         -17.1570    13.6440    25.0980 h1         1 Y0J       0.067450
     39 N          -16.5370    17.7220    25.9410 ns         1 Y0J      -0.425400
     40 H10        -23.9330    10.8010    27.1160 ha         1 Y0J       0.148000
     41 H          -16.9640    17.8270    25.0320 hn         1 Y0J       0.347500
@<TRIPOS>BOND
     1     1    13 2   
     2     1    18 1   
     3     2     8 1   
     4     2    10 1   
     5     2    20 1   
     6     3     4 ar  
     7     3    19 ar  
     8     3    25 1   
     9     4     5 ar  
    10     4    26 1   
    11     5     6 ar  
    12     5    27 1   
    13     6    18 ar  
    14     6    22 1   
    15     7    20 1   
    16     7    21 1   
    17     7    28 1   
    18     7    29 1   
    19     8    14 1   
    20     8    23 2   
    21     9    15 1   
    22     9    16 2   
    23     9    40 1   
    24    10    17 1   
    25    10    30 1   
    26    10    31 1   
    27    11    12 2   
    28    11    21 1   
    29    11    39 1   
    30    13    22 1   
    31    13    39 1   
    32    14    15 2   
    33    14    24 1   
    34    15    32 1   
    35    16    24 1   
    36    16    33 1   
    37    17    21 1   
    38    17    34 1   
    39    17    35 1   
    40    18    19 ar  
    41    19    36 1   
    42    20    37 1   
    43    20    38 1   
    44    39    41 1   
@<TRIPOS>SUBSTRUCTURE
     1 Y0J         1 TEMP              0 ****  ****    0 ROOT
