@<TRIPOS>MOLECULE
Y0J
   41    44     1     0     0
SMALL
No Charge or Current Charge


@<TRIPOS>ATOM
      1 N1         -14.6580    19.2070    25.2660 nc         1 Y0J      -0.639100
      2 N3         -19.5130    13.6620    25.5740 n          1 Y0J      -0.411800
      3 C4         -12.4340    22.0240    26.3910 ca         1 Y0J      -0.118000
      4 C5         -12.5930    21.8410    27.7880 ca         1 Y0J      -0.105000
      5 C6         -13.4180    20.8070    28.2780 ca         1 Y0J      -0.080000
      6 C7         -14.0510    19.9970    27.3300 ca         1 Y0J       0.019100
      7 C8         -17.8880    15.5600    25.0800 c6         1 Y0J       0.087500
      8 C10        -20.4790    12.7330    25.1030 c          1 Y0J       0.551600
      9 C13        -23.4810    11.4470    26.8100 cc         1 Y0J      -0.197000
     10 C15        -18.9440    13.5690    26.9460 c6         1 Y0J       0.087500
     11 C          -16.6750    16.6860    27.0220 c          1 Y0J       0.675100
     12 O          -16.5340    16.8610    28.2220 o          1 Y0J      -0.582100
     13 C1         -15.2170    18.5150    26.2740 cd         1 Y0J       0.621200
     14 C11        -21.6180    12.3700    26.0170 cd         1 Y0J       0.052500
     15 C12        -22.5730    11.4280    25.7340 cc         1 Y0J      -0.108000
     16 C14        -23.0380    12.4080    27.6760 cd         1 Y0J       0.141900
     17 C16        -18.3880    14.9120    27.4700 c6         1 Y0J       0.087500
     18 C2         -13.9130    20.1540    25.9750 ca         1 Y0J       0.083400
     19 C3         -13.0960    21.1780    25.4720 ca         1 Y0J      -0.062000
     20 C9         -18.5130    14.2160    24.6270 c6         1 Y0J       0.087500
     21 N2         -17.4990    15.6500    26.5240 n          1 Y0J      -0.424800
     22 O1         -14.8760    18.9600    27.5240 os         1 Y0J      -0.259700
     23 O2         -20.3990    12.2770    23.9670 o          1 Y0J      -0.581100
     24 O3         -21.8940    13.0160    27.2080 os         1 Y0J      -0.234000
     25 H2         -11.7950    22.8240    26.0220 ha         1 Y0J       0.117000
     26 H3         -12.0780    22.4990    28.4840 ha         1 Y0J       0.118000
     27 H4         -13.5580    20.6450    29.3440 ha         1 Y0J       0.136000
     28 H5         -18.6150    16.3600    24.8770 h1         1 Y0J       0.062950
     29 H6         -17.0150    15.7430    24.4380 h1         1 Y0J       0.062950
     30 H12        -19.6530    13.1710    27.6780 h1         1 Y0J       0.067450
     31 H13        -18.1130    12.8500    26.9160 h1         1 Y0J       0.067450
     32 H9         -22.6300    10.7890    24.8570 ha         1 Y0J       0.157000
     33 H11        -23.4380    12.7490    28.6220 h4         1 Y0J       0.056100
     34 H14        -19.2370    15.5640    27.7200 h1         1 Y0J       0.062950
     35 H15        -17.8500    14.7140    28.4080 h1         1 Y0J       0.062950
     36 H1         -12.9770    21.3140    24.4000 ha         1 Y0J       0.132000
     37 H7         -18.9710    14.3610    23.6380 h1         1 Y0J       0.067450
     38 H8         -17.7080    13.4770    24.5030 h1         1 Y0J       0.067450
     39 N          -16.0540    17.4600    26.0820 ns         1 Y0J      -0.425400
     40 H10        -24.3620    10.8210    26.9180 ha         1 Y0J       0.148000
     41 H          -16.2440    17.2100    25.1280 hn         1 Y0J       0.347500
@<TRIPOS>BOND
     1     1    13 2   
     2     1    18 1   
     3     2     8 1   
     4     2    10 1   
     5     2    20 1   
     6     3     4 ar  
     7     3    19 ar  
     8     3    25 1   
     9     4     5 ar  
    10     4    26 1   
    11     5     6 ar  
    12     5    27 1   
    13     6    18 ar  
    14     6    22 1   
    15     7    20 1   
    16     7    21 1   
    17     7    28 1   
    18     7    29 1   
    19     8    14 1   
    20     8    23 2   
    21     9    15 1   
    22     9    16 2   
    23     9    40 1   
    24    10    17 1   
    25    10    30 1   
    26    10    31 1   
    27    11    12 2   
    28    11    21 1   
    29    11    39 1   
    30    13    22 1   
    31    13    39 1   
    32    14    15 2   
    33    14    24 1   
    34    15    32 1   
    35    16    24 1   
    36    16    33 1   
    37    17    21 1   
    38    17    34 1   
    39    17    35 1   
    40    18    19 ar  
    41    19    36 1   
    42    20    37 1   
    43    20    38 1   
    44    39    41 1   
@<TRIPOS>SUBSTRUCTURE
     1 Y0J         1 TEMP              0 ****  ****    0 ROOT
