@<TRIPOS>MOLECULE
Y0L
   34    36     1     0     0
SMALL
No Charge or Current Charge


@<TRIPOS>ATOM
      1 C10        -24.1150    -3.7430   -29.3940 ca         1 Y0L      -0.048000
      2 C15        -20.6240    -7.9720   -28.2290 ca         1 Y0L      -0.072500
      3 C17        -19.0720    -9.7950   -28.6830 ca         1 Y0L      -0.090000
      4 C02        -20.0590    -5.5630   -28.9270 c          1 Y0L       0.614700
      5 C04        -21.7680    -3.7840   -28.4190 c3         1 Y0L       0.153300
      6 C05        -22.7250    -3.5750   -29.5810 ca         1 Y0L      -0.159300
      7 C06        -22.2240    -3.2240   -30.8580 ca         1 Y0L      -0.052000
      8 C07        -23.1060    -3.0360   -31.9410 ca         1 Y0L      -0.140000
      9 C08        -24.4790    -3.1970   -31.7210 ca         1 Y0L       0.134100
     10 C09        -24.9730    -3.5460   -30.4870 ca         1 Y0L      -0.179300
     11 C11        -26.4590    -3.6930   -30.5310 c5         1 Y0L      -0.052100
     12 C12        -26.7090    -3.0650   -31.9540 c5         1 Y0L       0.147600
     13 C14        -19.7370    -7.0420   -28.8300 ca         1 Y0L      -0.150600
     14 C16        -20.2900    -9.3360   -28.1590 ca         1 Y0L      -0.120000
     15 C18        -18.1850    -8.8870   -29.2800 ca         1 Y0L      -0.120000
     16 C19        -18.5140    -7.5220   -29.3530 ca         1 Y0L      -0.072500
     17 N03        -21.2620    -5.1560   -28.3940 ns         1 Y0L      -0.499900
     18 O01        -19.2930    -4.7640   -29.4500 o          1 Y0L      -0.605100
     19 O13        -25.4360    -3.0580   -32.6860 os         1 Y0L      -0.331100
     20 H1         -24.5180    -4.0250   -28.4230 ha         1 Y0L       0.110000
     21 H3         -18.8170   -10.8510   -28.6270 ha         1 Y0L       0.115000
     22 H4         -20.9310    -3.0760   -28.4900 h1         1 Y0L       0.062200
     23 H5         -22.2860    -3.5840   -27.4710 h1         1 Y0L       0.062200
     24 H6         -21.1530    -3.1030   -31.0090 ha         1 Y0L       0.133000
     25 H7         -22.7320    -2.7710   -32.9260 ha         1 Y0L       0.133000
     26 H8         -26.9770    -3.1430   -29.7370 hc         1 Y0L       0.061200
     27 H9         -26.7750    -4.7410   -30.4860 hc         1 Y0L       0.061200
     28 H10        -27.0440    -2.0230   -31.8540 h1         1 Y0L       0.057200
     29 H11        -27.4680    -3.6100   -32.5300 h1         1 Y0L       0.057200
     30 H12        -20.9790   -10.0390   -27.6960 ha         1 Y0L       0.116500
     31 H13        -17.2400    -9.2400   -29.6880 ha         1 Y0L       0.116500
     32 H14        -17.8100    -6.8370   -29.8210 ha         1 Y0L       0.122000
     33 H15        -21.8470    -5.8710   -27.9840 hn         1 Y0L       0.313500
     34 H2         -21.5770    -7.6570   -27.8120 ha         1 Y0L       0.122000
@<TRIPOS>BOND
     1     1     6 ar  
     2     1    10 ar  
     3     1    20 1   
     4     2    13 ar  
     5     2    14 ar  
     6     2    34 1   
     7     3    14 ar  
     8     3    15 ar  
     9     3    21 1   
    10     4    13 1   
    11     4    17 1   
    12     4    18 2   
    13     5     6 1   
    14     5    17 1   
    15     5    22 1   
    16     5    23 1   
    17     6     7 ar  
    18     7     8 ar  
    19     7    24 1   
    20     8     9 ar  
    21     8    25 1   
    22     9    10 ar  
    23     9    19 1   
    24    10    11 1   
    25    11    12 1   
    26    11    26 1   
    27    11    27 1   
    28    12    19 1   
    29    12    28 1   
    30    12    29 1   
    31    13    16 ar  
    32    14    30 1   
    33    15    16 ar  
    34    15    31 1   
    35    16    32 1   
    36    17    33 1   
@<TRIPOS>SUBSTRUCTURE
     1 Y0L         1 TEMP              0 ****  ****    0 ROOT
