@<TRIPOS>MOLECULE
Y0L
   34    36     1     0     0
SMALL
abcg2


@<TRIPOS>ATOM
      1 C10        -24.1880    -3.7490   -29.4060 ca         1 Y0L      -0.048000
      2 C15        -20.2670    -7.9190   -27.7840 ca         1 Y0L      -0.072500
      3 C17        -18.9620    -9.7170   -28.7060 ca         1 Y0L      -0.090000
      4 C02        -20.1580    -5.6040   -28.8190 c          1 Y0L       0.614700
      5 C04        -21.9170    -3.9500   -28.3310 c3         1 Y0L       0.153300
      6 C05        -22.7980    -3.6640   -29.5210 ca         1 Y0L      -0.159300
      7 C06        -22.2400    -3.3400   -30.7570 ca         1 Y0L      -0.052000
      8 C07        -23.0270    -3.0960   -31.8770 ca         1 Y0L      -0.140000
      9 C08        -24.4000    -3.1870   -31.7270 ca         1 Y0L       0.134100
     10 C09        -24.9830    -3.5070   -30.5090 ca         1 Y0L      -0.179300
     11 C11        -26.4700    -3.5590   -30.7060 c5         1 Y0L      -0.052100
     12 C12        -26.6100    -2.9630   -32.1170 c5         1 Y0L       0.147600
     13 C14        -19.7770    -7.0500   -28.7570 ca         1 Y0L      -0.150600
     14 C16        -19.8590    -9.2450   -27.7570 ca         1 Y0L      -0.120000
     15 C18        -18.4670    -8.8550   -29.6760 ca         1 Y0L      -0.120000
     16 C19        -18.8640    -7.5280   -29.6950 ca         1 Y0L      -0.072500
     17 N03        -21.3760    -5.2960   -28.3400 ns         1 Y0L      -0.499900
     18 O01        -19.3870    -4.7720   -29.2790 o          1 Y0L      -0.605100
     19 O13        -25.2980    -2.9820   -32.7110 os         1 Y0L      -0.331100
     20 H1         -24.6380    -3.9980   -28.4520 ha         1 Y0L       0.110000
     21 H3         -18.6470   -10.7520   -28.6870 ha         1 Y0L       0.115000
     22 H4         -21.0850    -3.2500   -28.2900 h1         1 Y0L       0.062200
     23 H5         -22.4860    -3.8270   -27.4090 h1         1 Y0L       0.062200
     24 H6         -21.1630    -3.2690   -30.8490 ha         1 Y0L       0.133000
     25 H7         -22.5780    -2.8390   -32.8280 ha         1 Y0L       0.133000
     26 H8         -27.0230    -2.9780   -29.9670 hc         1 Y0L       0.061200
     27 H9         -26.8400    -4.5850   -30.6560 hc         1 Y0L       0.061200
     28 H10        -26.9560    -1.9270   -32.0770 h1         1 Y0L       0.057200
     29 H11        -27.2840    -3.5280   -32.7580 h1         1 Y0L       0.057200
     30 H12        -20.2380    -9.9070   -26.9900 ha         1 Y0L       0.116500
     31 H13        -17.7670    -9.2180   -30.4170 ha         1 Y0L       0.116500
     32 H14        -18.4670    -6.8600   -30.4480 ha         1 Y0L       0.122000
     33 H15        -22.0150    -6.0400   -28.1120 hn         1 Y0L       0.313500
     34 H2         -20.9490    -7.5680   -27.0190 ha         1 Y0L       0.122000
@<TRIPOS>BOND
     1     1     6 ar  
     2     1    10 ar  
     3     1    20 1   
     4     2    13 ar  
     5     2    14 ar  
     6     2    34 1   
     7     3    14 ar  
     8     3    15 ar  
     9     3    21 1   
    10     4    13 1   
    11     4    17 1   
    12     4    18 2   
    13     5     6 1   
    14     5    17 1   
    15     5    22 1   
    16     5    23 1   
    17     6     7 ar  
    18     7     8 ar  
    19     7    24 1   
    20     8     9 ar  
    21     8    25 1   
    22     9    10 ar  
    23     9    19 1   
    24    10    11 1   
    25    11    12 1   
    26    11    26 1   
    27    11    27 1   
    28    12    19 1   
    29    12    28 1   
    30    12    29 1   
    31    13    16 ar  
    32    14    30 1   
    33    15    16 ar  
    34    15    31 1   
    35    16    32 1   
    36    17    33 1   
@<TRIPOS>SUBSTRUCTURE
     1 Y0L         1 TEMP              0 ****  ****    0 ROOT
