@<TRIPOS>MOLECULE
Y0M
   39    41     1     0     0
SMALL
No Charge or Current Charge


@<TRIPOS>ATOM
      1 N1         -21.1830    -0.1330    -7.5430 nb         1 Y0M      -0.733000
      2 C4         -22.8670     1.6510    -7.7060 ca         1 Y0M       0.203000
      3 C5         -22.2850     0.5030    -7.0720 ca         1 Y0M       0.552300
      4 C6         -22.3700    -1.1230    -5.2230 c3         1 Y0M       0.162900
      5 C7         -20.6090     0.3500    -8.6670 ca         1 Y0M       0.360900
      6 C8         -21.1020     1.4700    -9.3550 ca         1 Y0M      -0.167000
      7 C10        -26.0890     0.1570    -8.6130 ca         1 Y0M       0.125100
      8 C13        -25.9900    -1.4230    -6.7800 c6         1 Y0M       0.125600
      9 N          -24.0230     2.2720    -7.1840 nu         1 Y0M      -0.859100
     10 C          -26.4180    -0.7050   -10.8880 ca         1 Y0M      -0.300500
     11 O          -26.6550    -1.6040   -13.4170 o          1 Y0M      -0.540000
     12 C1         -26.0990     0.5750   -11.3980 ca         1 Y0M      -0.031000
     13 C11        -26.4170    -0.9120    -9.4950 ca         1 Y0M       0.156100
     14 C12        -26.9980    -2.2720    -7.5760 c6         1 Y0M       0.129600
     15 C2         -25.7960     1.6350   -10.5260 ca         1 Y0M      -0.038000
     16 C3         -25.7970     1.4350    -9.1290 ca         1 Y0M      -0.246500
     17 C9         -22.2440     2.1340    -8.8730 ca         1 Y0M      -0.080000
     18 O1         -26.3760     2.9110    -6.9700 o          1 Y0M      -0.528000
     19 O2         -22.8930     0.0220    -5.9260 os         1 Y0M      -0.486300
     20 O3         -24.9160     3.9560    -8.7970 o          1 Y0M      -0.528000
     21 O4         -26.7120    -2.1640    -8.9870 os         1 Y0M      -0.332100
     22 O5         -26.0370    -0.0580    -7.2470 os         1 Y0M      -0.344100
     23 O6         -28.0290    -2.7580   -11.5720 o          1 Y0M      -0.540000
     24 S1         -25.3740     2.7940    -8.0310 sy         1 Y0M       1.188600
     25 H63        -22.9880    -1.3470    -4.3440 h1         1 Y0M       0.050367
     26 H62        -22.3640    -2.0120    -5.8680 h1         1 Y0M       0.050367
     27 H61        -21.3440    -0.9370    -4.8770 h1         1 Y0M       0.050367
     28 H71        -19.7260    -0.1770    -9.0260 h4         1 Y0M       0.028100
     29 H81        -20.5970     1.8170   -10.2520 ha         1 Y0M       0.135000
     30 H132       -26.2180    -1.4500    -5.7050 h1         1 Y0M       0.083200
     31 H131       -24.9760    -1.8190    -6.9290 h1         1 Y0M       0.083200
     32 HN1        -24.4370     1.7780    -6.4010 hn         1 Y0M       0.517000
     33 H11        -26.0890     0.7620   -12.4720 ha         1 Y0M       0.153000
     34 H121       -28.0170    -1.9080    -7.3860 h1         1 Y0M       0.088200
     35 H122       -26.9450    -3.3270    -7.2710 h1         1 Y0M       0.088200
     36 H21        -25.5570     2.6110   -10.9460 ha         1 Y0M       0.154000
     37 H91        -22.6220     3.0080    -9.3950 ha         1 Y0M       0.151000
     38 F1         -25.5810    -3.0790   -11.7340 f          1 Y0M      -0.262900
     39 S          -26.8170    -2.0560   -12.0250 sy         1 Y0M       1.380400
@<TRIPOS>BOND
     1     1     3 ar  
     2     1     5 ar  
     3     2     3 ar  
     4     2     9 1   
     5     2    17 ar  
     6     3    19 1   
     7     4    19 1   
     8     4    25 1   
     9     4    26 1   
    10     4    27 1   
    11     5     6 ar  
    12     5    28 1   
    13     6    17 ar  
    14     6    29 1   
    15     7    13 ar  
    16     7    16 ar  
    17     7    22 1   
    18     8    14 1   
    19     8    22 1   
    20     8    30 1   
    21     8    31 1   
    22     9    24 1   
    23     9    32 1   
    24    10    12 ar  
    25    10    13 ar  
    26    10    39 1   
    27    11    39 2   
    28    12    15 ar  
    29    12    33 1   
    30    13    21 1   
    31    14    21 1   
    32    14    34 1   
    33    14    35 1   
    34    15    16 ar  
    35    15    36 1   
    36    16    24 1   
    37    17    37 1   
    38    18    24 2   
    39    20    24 2   
    40    23    39 2   
    41    38    39 1   
@<TRIPOS>SUBSTRUCTURE
     1 Y0M         1 TEMP              0 ****  ****    0 ROOT
