@<TRIPOS>MOLECULE
Y0M
   39    41     1     0     0
SMALL
abcg2


@<TRIPOS>ATOM
      1 N1         -21.4130    -0.2480    -7.5620 nb         1 Y0M      -0.733000
      2 C4         -22.9850     1.5580    -7.7390 ca         1 Y0M       0.203000
      3 C5         -22.4140     0.4510    -7.0740 ca         1 Y0M       0.552300
      4 C6         -22.4290    -0.9910    -5.1700 c3         1 Y0M       0.162900
      5 C7         -20.9080     0.1050    -8.7560 ca         1 Y0M       0.360900
      6 C8         -21.3860     1.1780    -9.4800 ca         1 Y0M      -0.167000
      7 C10        -26.0400     0.1760    -8.5670 ca         1 Y0M       0.125100
      8 C13        -25.8340    -1.4030    -6.8340 c6         1 Y0M       0.125600
      9 N          -24.0730     2.2150    -7.1150 nu         1 Y0M      -0.859100
     10 C          -26.3020    -0.6130   -10.8290 ca         1 Y0M      -0.300500
     11 O          -26.4380    -1.4250   -13.3140 o          1 Y0M      -0.540000
     12 C1         -26.0590     0.6650   -11.3310 ca         1 Y0M      -0.031000
     13 C11        -26.3060    -0.8820    -9.4570 ca         1 Y0M       0.156100
     14 C12        -26.7970    -2.2610    -7.6090 c6         1 Y0M       0.129600
     15 C2         -25.8140     1.7000   -10.4500 ca         1 Y0M      -0.038000
     16 C3         -25.8010     1.4510    -9.0810 ca         1 Y0M      -0.246500
     17 C9         -22.4440     1.9240    -8.9570 ca         1 Y0M      -0.080000
     18 O1         -26.4150     2.9800    -7.0040 o          1 Y0M      -0.528000
     19 O2         -22.9550     0.1410    -5.8780 os         1 Y0M      -0.486300
     20 O3         -24.9370     3.8740    -8.7900 o          1 Y0M      -0.528000
     21 O4         -26.5260    -2.1350    -9.0230 os         1 Y0M      -0.332100
     22 O5         -25.9890    -0.0250    -7.2340 os         1 Y0M      -0.344100
     23 O6         -27.7530    -2.6840   -11.6320 o          1 Y0M      -0.540000
     24 S1         -25.3700     2.7740    -7.9720 sy         1 Y0M       1.188600
     25 H63        -23.0200    -1.0590    -4.2610 h1         1 Y0M       0.050367
     26 H62        -22.5400    -1.8980    -5.7640 h1         1 Y0M       0.050367
     27 H61        -21.3770    -0.8390    -4.9310 h1         1 Y0M       0.050367
     28 H71        -20.0920    -0.5030    -9.1300 h4         1 Y0M       0.028100
     29 H81        -20.9500     1.4380   -10.4350 ha         1 Y0M       0.135000
     30 H132       -26.0420    -1.4330    -5.7680 h1         1 Y0M       0.083200
     31 H131       -24.8030    -1.7060    -7.0210 h1         1 Y0M       0.083200
     32 HN1        -24.3760     1.7530    -6.2640 hn         1 Y0M       0.517000
     33 H11        -26.0570     0.8340   -12.3970 ha         1 Y0M       0.153000
     34 H121       -27.8300    -1.9600    -7.4260 h1         1 Y0M       0.088200
     35 H122       -26.6690    -3.3130    -7.3710 h1         1 Y0M       0.088200
     36 H21        -25.6080     2.6950   -10.8150 ha         1 Y0M       0.154000
     37 H91        -22.8400     2.7730    -9.4950 ha         1 Y0M       0.151000
     38 F1         -25.3540    -2.8300   -11.6900 f          1 Y0M      -0.262900
     39 S          -26.6120    -1.9030   -11.9810 sy         1 Y0M       1.380400
@<TRIPOS>BOND
     1     1     3 ar  
     2     1     5 ar  
     3     2     3 ar  
     4     2     9 1   
     5     2    17 ar  
     6     3    19 1   
     7     4    19 1   
     8     4    25 1   
     9     4    26 1   
    10     4    27 1   
    11     5     6 ar  
    12     5    28 1   
    13     6    17 ar  
    14     6    29 1   
    15     7    13 ar  
    16     7    16 ar  
    17     7    22 1   
    18     8    14 1   
    19     8    22 1   
    20     8    30 1   
    21     8    31 1   
    22     9    24 1   
    23     9    32 1   
    24    10    12 ar  
    25    10    13 ar  
    26    10    39 1   
    27    11    39 2   
    28    12    15 ar  
    29    12    33 1   
    30    13    21 1   
    31    14    21 1   
    32    14    34 1   
    33    14    35 1   
    34    15    16 ar  
    35    15    36 1   
    36    16    24 1   
    37    17    37 1   
    38    18    24 2   
    39    20    24 2   
    40    23    39 2   
    41    38    39 1   
@<TRIPOS>SUBSTRUCTURE
     1 Y0M         1 TEMP              0 ****  ****    0 ROOT
