@<TRIPOS>MOLECULE
Y0O
   34    35     1     0     0
SMALL
No Charge or Current Charge


@<TRIPOS>ATOM
      1 C10        -26.9050    -3.0100   -30.7860 c1         1 Y0O      -0.194100
      2 C13        -24.2390    -1.4850   -31.3420 c6         1 Y0O      -0.070900
      3 C15        -22.1280    -2.4220   -32.5390 c6         1 Y0O      -0.072400
      4 C17        -24.2630    -3.8450   -32.3550 c6         1 Y0O      -0.070900
      5 C04        -26.8700    -4.6970   -26.1760 ca         1 Y0O      -0.187600
      6 C05        -28.2390    -4.8010   -25.8670 ca         1 Y0O       0.355900
      7 C07        -28.8640    -4.0290   -27.9650 ca         1 Y0O       0.327900
      8 C08        -27.5220    -3.8910   -28.3670 ca         1 Y0O      -0.078000
      9 C09        -27.1960    -3.4130   -29.6790 cg         1 Y0O      -0.064000
     10 C11        -26.4980    -2.5260   -32.1150 c3         1 Y0O       0.028700
     11 C12        -24.9540    -2.4420   -32.3360 c6         1 Y0O      -0.051700
     12 C14        -22.7530    -1.2420   -31.7410 c6         1 Y0O      -0.072900
     13 C16        -22.7270    -3.7800   -32.1090 c6         1 Y0O      -0.072900
     14 C18        -26.5050    -4.2300   -27.4580 ca         1 Y0O      -0.032000
     15 N06        -29.2260    -4.4750   -26.7390 nb         1 Y0O      -0.711000
     16 O01        -26.2220    -5.4750   -24.0600 o          1 Y0O      -0.713500
     17 O03        -24.6600    -4.9780   -25.4480 o          1 Y0O      -0.713500
     18 H1         -24.7660    -0.5230   -31.2860 hc         1 Y0O       0.046200
     19 H2         -24.2750    -1.9140   -30.3310 hc         1 Y0O       0.046200
     20 H3         -21.0380    -2.4270   -32.4030 hc         1 Y0O       0.028700
     21 H4         -22.3020    -2.2750   -33.6140 hc         1 Y0O       0.028700
     22 H5         -24.7050    -4.5110   -31.6020 hc         1 Y0O       0.046200
     23 H6         -24.4580    -4.3220   -33.3260 hc         1 Y0O       0.046200
     24 H7         -28.5740    -5.1550   -24.8930 h4         1 Y0O       0.033100
     25 H8         -29.6790    -3.7760   -28.6420 h4         1 Y0O      -0.005900
     26 H9         -26.9460    -1.5370   -32.2680 hc         1 Y0O       0.044200
     27 H10        -26.9460    -3.1810   -32.8730 hc         1 Y0O       0.044200
     28 H11        -24.8420    -2.0060   -33.3400 hc         1 Y0O       0.031700
     29 H12        -22.1660    -1.0560   -30.8320 hc         1 Y0O       0.035950
     30 H13        -22.6760    -0.3260   -32.3430 hc         1 Y0O       0.035950
     31 H14        -22.5210    -3.9380   -31.0410 hc         1 Y0O       0.035950
     32 H15        -22.2280    -4.6020   -32.6410 hc         1 Y0O       0.035950
     33 H16        -25.4590    -4.1330   -27.7430 ha         1 Y0O       0.137000
     34 C02        -25.8410    -5.0790   -25.1510 c          1 Y0O       0.721600
@<TRIPOS>BOND
     1     1     9 3   
     2     1    10 1   
     3     2    11 1   
     4     2    12 1   
     5     2    18 1   
     6     2    19 1   
     7     3    12 1   
     8     3    13 1   
     9     3    20 1   
    10     3    21 1   
    11     4    11 1   
    12     4    13 1   
    13     4    22 1   
    14     4    23 1   
    15     5     6 ar  
    16     5    14 ar  
    17     5    34 1   
    18     6    15 ar  
    19     6    24 1   
    20     7     8 ar  
    21     7    15 ar  
    22     7    25 1   
    23     8     9 1   
    24     8    14 ar  
    25    10    11 1   
    26    10    26 1   
    27    10    27 1   
    28    11    28 1   
    29    12    29 1   
    30    12    30 1   
    31    13    31 1   
    32    13    32 1   
    33    14    33 1   
    34    16    34 1   
    35    17    34 1   
@<TRIPOS>SUBSTRUCTURE
     1 Y0O         1 TEMP              0 ****  ****    0 ROOT
