@<TRIPOS>MOLECULE
Y0O
   34    35     1     0     0
SMALL
abcg2


@<TRIPOS>ATOM
      1 C10        -26.7440    -2.7830   -30.6130 c1         1 Y0O      -0.194100
      2 C13        -23.9730    -1.6900   -31.1740 c6         1 Y0O      -0.070900
      3 C15        -22.2340    -2.6860   -32.7510 c6         1 Y0O      -0.072400
      4 C17        -24.5500    -3.6700   -32.6060 c6         1 Y0O      -0.070900
      5 C04        -27.0100    -4.4170   -26.0190 ca         1 Y0O      -0.187600
      6 C05        -28.0330    -5.3560   -26.1080 ca         1 Y0O       0.355900
      7 C07        -28.3540    -4.9810   -28.3290 ca         1 Y0O       0.327900
      8 C08        -27.3430    -4.0180   -28.3690 ca         1 Y0O      -0.078000
      9 C09        -27.0190    -3.3510   -29.5860 cg         1 Y0O      -0.064000
     10 C11        -26.4000    -2.0930   -31.8490 c3         1 Y0O       0.028700
     11 C12        -24.9210    -2.2240   -32.2410 c6         1 Y0O      -0.051700
     12 C14        -22.5400    -1.5910   -31.7170 c6         1 Y0O      -0.072900
     13 C16        -23.0450    -3.9420   -32.4620 c6         1 Y0O      -0.072900
     14 C18        -26.6680    -3.7410   -27.1800 ca         1 Y0O      -0.032000
     15 N06        -28.6930    -5.6330   -27.2280 nb         1 Y0O      -0.711000
     16 O01        -26.6480    -4.8310   -23.7270 o          1 Y0O      -0.713500
     17 O03        -25.4150    -3.2600   -24.7300 o          1 Y0O      -0.713500
     18 H1         -24.3060    -0.7120   -30.8180 hc         1 Y0O       0.046200
     19 H2         -24.0010    -2.3550   -30.3050 hc         1 Y0O       0.046200
     20 H3         -21.1650    -2.9080   -32.7590 hc         1 Y0O       0.028700
     21 H4         -22.4770    -2.3300   -33.7570 hc         1 Y0O       0.028700
     22 H5         -25.1030    -4.3660   -31.9680 hc         1 Y0O       0.046200
     23 H6         -24.8730    -3.8710   -33.6300 hc         1 Y0O       0.046200
     24 H7         -28.3320    -5.9080   -25.2250 h4         1 Y0O       0.033100
     25 H8         -28.9040    -5.2230   -29.2330 h4         1 Y0O      -0.005900
     26 H9         -26.6530    -1.0330   -31.7440 hc         1 Y0O       0.044200
     27 H10        -27.0270    -2.4780   -32.6580 hc         1 Y0O       0.044200
     28 H11        -24.8050    -1.5990   -33.1340 hc         1 Y0O       0.031700
     29 H12        -21.8360    -1.6610   -30.8840 hc         1 Y0O       0.035950
     30 H13        -22.3820    -0.6090   -32.1690 hc         1 Y0O       0.035950
     31 H14        -22.8240    -4.2830   -31.4460 hc         1 Y0O       0.035950
     32 H15        -22.7480    -4.7570   -33.1260 hc         1 Y0O       0.035950
     33 H16        -25.8780    -3.0020   -27.1640 ha         1 Y0O       0.137000
     34 C02        -26.2900    -4.1430   -24.7010 c          1 Y0O       0.721600
@<TRIPOS>BOND
     1     1     9 3   
     2     1    10 1   
     3     2    11 1   
     4     2    12 1   
     5     2    18 1   
     6     2    19 1   
     7     3    12 1   
     8     3    13 1   
     9     3    20 1   
    10     3    21 1   
    11     4    11 1   
    12     4    13 1   
    13     4    22 1   
    14     4    23 1   
    15     5     6 ar  
    16     5    14 ar  
    17     5    34 1   
    18     6    15 ar  
    19     6    24 1   
    20     7     8 ar  
    21     7    15 ar  
    22     7    25 1   
    23     8     9 1   
    24     8    14 ar  
    25    10    11 1   
    26    10    26 1   
    27    10    27 1   
    28    11    28 1   
    29    12    29 1   
    30    12    30 1   
    31    13    31 1   
    32    13    32 1   
    33    14    33 1   
    34    16    34 1   
    35    17    34 1   
@<TRIPOS>SUBSTRUCTURE
     1 Y0O         1 TEMP              0 ****  ****    0 ROOT
