@<TRIPOS>MOLECULE
Y0P
   40    42     1     0     0
SMALL
abcg2


@<TRIPOS>ATOM
      1 C4         -21.4680     2.6840    -8.3300 ca         1 Y0P       0.227000
      2 C14        -25.1250    -2.3580    -7.4390 c6         1 Y0P       0.123600
      3 C5         -22.7040     3.0830    -7.8690 ca         1 Y0P      -0.195000
      4 C6         -23.3820     2.1970    -7.0300 ca         1 Y0P       0.310000
      5 C11        -25.4380    -0.9110    -9.2640 ca         1 Y0P       0.149100
      6 C7         -25.7380     1.4440    -8.8180 ca         1 Y0P      -0.246500
      7 C8         -25.5360     1.7480   -10.1610 ca         1 Y0P      -0.030000
      8 C9         -25.3130     0.7290   -11.0690 ca         1 Y0P      -0.030000
      9 C10        -25.2530    -0.5860   -10.6120 ca         1 Y0P      -0.296500
     10 C12        -25.7230     0.1260    -8.3570 ca         1 Y0P       0.128100
     11 C13        -26.1180    -1.5060    -6.6950 c6         1 Y0P       0.129600
     12 N1         -24.6860     2.5190    -6.5530 nu         1 Y0P      -0.857100
     13 C3         -20.8630     1.4840    -8.0010 ca         1 Y0P      -0.244000
     14 C1         -19.8410    -1.0320    -7.2700 c3         1 Y0P       0.147900
     15 C15        -22.8200     0.9830    -6.6650 ca         1 Y0P      -0.201000
     16 C2         -21.5580     0.6270    -7.1450 ca         1 Y0P       0.184100
     17 F1         -20.7950     3.5230    -9.1550 f          1 Y0P      -0.172000
     18 O1         -21.0930    -0.5800    -6.7470 os         1 Y0P      -0.351100
     19 O2         -25.6250     3.9940    -8.3680 o          1 Y0P      -0.523500
     20 O3         -27.1320     2.6660    -6.9060 o          1 Y0P      -0.523500
     21 O4         -25.8110    -2.9610   -11.6480 o          1 Y0P      -0.538500
     22 O5         -24.6500    -1.2870   -13.0610 o          1 Y0P      -0.538500
     23 O6         -25.9350    -0.1190    -7.0490 os         1 Y0P      -0.357100
     24 O7         -25.3140    -2.1890    -8.8610 os         1 Y0P      -0.329100
     25 S1         -25.9050     2.7790    -7.6500 sy         1 Y0P       1.175600
     26 S2         -24.9200    -1.8550   -11.7800 sy         1 Y0P       1.379400
     27 H142       -25.2840    -3.4140    -7.2380 h1         1 Y0P       0.087200
     28 H141       -24.1000    -2.0790    -7.1900 h1         1 Y0P       0.087200
     29 H51        -23.1240     4.0350    -8.1520 ha         1 Y0P       0.170000
     30 H81        -25.5440     2.7780   -10.4820 ha         1 Y0P       0.157000
     31 H91        -25.1620     0.9450   -12.1150 ha         1 Y0P       0.154000
     32 H132       -27.1420    -1.7940    -6.9390 h1         1 Y0P       0.086200
     33 H131       -25.9620    -1.5650    -5.6210 h1         1 Y0P       0.086200
     34 H14        -25.0180     1.8880    -5.8320 hn         1 Y0P       0.496000
     35 H31        -19.8910     1.2470    -8.4040 ha         1 Y0P       0.143000
     36 H12        -19.6830    -2.0200    -6.8450 h1         1 Y0P       0.049367
     37 H13        -19.8780    -1.0990    -8.3590 h1         1 Y0P       0.049367
     38 H11        -19.0300    -0.3660    -6.9680 h1         1 Y0P       0.049367
     39 H151       -23.3590     0.2920    -6.0300 ha         1 Y0P       0.131000
     40 F2         -23.5190    -2.3750   -11.2370 f          1 Y0P      -0.264900
@<TRIPOS>BOND
     1     1     3 ar  
     2     1    13 ar  
     3     1    17 1   
     4     2    11 1   
     5     2    24 1   
     6     2    27 1   
     7     2    28 1   
     8     3     4 ar  
     9     3    29 1   
    10     4    12 1   
    11     4    15 ar  
    12     5     9 ar  
    13     5    10 ar  
    14     5    24 1   
    15     6     7 ar  
    16     6    10 ar  
    17     6    25 1   
    18     7     8 ar  
    19     7    30 1   
    20     8     9 ar  
    21     8    31 1   
    22     9    26 1   
    23    10    23 1   
    24    11    23 1   
    25    11    32 1   
    26    11    33 1   
    27    12    25 1   
    28    12    34 1   
    29    13    16 ar  
    30    13    35 1   
    31    14    18 1   
    32    14    36 1   
    33    14    37 1   
    34    14    38 1   
    35    15    16 ar  
    36    15    39 1   
    37    16    18 1   
    38    19    25 2   
    39    20    25 2   
    40    21    26 2   
    41    22    26 2   
    42    26    40 1   
@<TRIPOS>SUBSTRUCTURE
     1 Y0P         1 TEMP              0 ****  ****    0 ROOT
