@<TRIPOS>MOLECULE
Y0P
   40    42     1     0     0
SMALL
No Charge or Current Charge


@<TRIPOS>ATOM
      1 C4         -21.3050     2.4050    -8.5530 ca         1 Y0P       0.227000
      2 C14        -25.3740    -2.5990    -7.8360 c6         1 Y0P       0.123600
      3 C5         -22.6080     2.7380    -8.1670 ca         1 Y0P      -0.195000
      4 C6         -23.1900     2.1140    -7.0530 ca         1 Y0P       0.310000
      5 C11        -25.7510    -0.9210    -9.5420 ca         1 Y0P       0.149100
      6 C7         -25.8010     1.4390    -8.8690 ca         1 Y0P      -0.246500
      7 C8         -25.7540     1.8110   -10.2290 ca         1 Y0P      -0.030000
      8 C9         -25.7260     0.8300   -11.2360 ca         1 Y0P      -0.030000
      9 C10        -25.7300    -0.5430   -10.9000 ca         1 Y0P      -0.296500
     10 C12        -25.8080     0.0720    -8.5230 ca         1 Y0P       0.128100
     11 C13        -26.1460    -1.6740    -6.8790 c6         1 Y0P       0.129600
     12 N1         -24.4820     2.3970    -6.6380 nu         1 Y0P      -0.857100
     13 C3         -20.5670     1.4550    -7.8370 ca         1 Y0P      -0.244000
     14 C1         -19.1340    -0.5300    -6.2730 c3         1 Y0P       0.147900
     15 C15        -22.4500     1.1680    -6.3300 ca         1 Y0P      -0.201000
     16 C2         -21.1450     0.8320    -6.7140 ca         1 Y0P       0.184100
     17 F1         -20.7520     3.0090    -9.6260 f          1 Y0P      -0.172000
     18 O1         -20.4760    -0.1110    -5.9630 os         1 Y0P      -0.351100
     19 O2         -25.5770     4.0310    -8.1800 o          1 Y0P      -0.523500
     20 O3         -26.9310     2.4670    -6.6700 o          1 Y0P      -0.523500
     21 O4         -26.6690    -2.8490   -11.9420 o          1 Y0P      -0.538500
     22 O5         -25.5740    -1.1390   -13.5230 o          1 Y0P      -0.538500
     23 O6         -25.8430    -0.2980    -7.1900 os         1 Y0P      -0.357100
     24 O7         -25.6980    -2.2600    -9.2020 os         1 Y0P      -0.329100
     25 S1         -25.8230     2.7080    -7.5970 sy         1 Y0P       1.175600
     26 S2         -25.6780    -1.7930   -12.2080 sy         1 Y0P       1.379400
     27 H142       -25.6270    -3.6520    -7.6500 h1         1 Y0P       0.087200
     28 H141       -24.2930    -2.4700    -7.6800 h1         1 Y0P       0.087200
     29 H51        -23.1480     3.4850    -8.7360 ha         1 Y0P       0.170000
     30 H81        -25.7430     2.8610   -10.5170 ha         1 Y0P       0.157000
     31 H91        -25.6970     1.1500   -12.2770 ha         1 Y0P       0.154000
     32 H132       -27.2260    -1.8400    -6.9980 h1         1 Y0P       0.086200
     33 H131       -25.8770    -1.8820    -5.8340 h1         1 Y0P       0.086200
     34 H14        -24.8500     1.7750    -5.9320 hn         1 Y0P       0.496000
     35 H31        -19.5600     1.2210    -8.1650 ha         1 Y0P       0.143000
     36 H12        -18.7950    -1.2840    -5.5520 h1         1 Y0P       0.049367
     37 H13        -19.0850    -0.9730    -7.2760 h1         1 Y0P       0.049367
     38 H11        -18.4400     0.3190    -6.2280 h1         1 Y0P       0.049367
     39 H151       -22.8880     0.6810    -5.4650 ha         1 Y0P       0.131000
     40 F2         -24.2230    -2.4740   -11.9250 f          1 Y0P      -0.264900
@<TRIPOS>BOND
     1     1     3 ar  
     2     1    13 ar  
     3     1    17 1   
     4     2    11 1   
     5     2    24 1   
     6     2    27 1   
     7     2    28 1   
     8     3     4 ar  
     9     3    29 1   
    10     4    12 1   
    11     4    15 ar  
    12     5     9 ar  
    13     5    10 ar  
    14     5    24 1   
    15     6     7 ar  
    16     6    10 ar  
    17     6    25 1   
    18     7     8 ar  
    19     7    30 1   
    20     8     9 ar  
    21     8    31 1   
    22     9    26 1   
    23    10    23 1   
    24    11    23 1   
    25    11    32 1   
    26    11    33 1   
    27    12    25 1   
    28    12    34 1   
    29    13    16 ar  
    30    13    35 1   
    31    14    18 1   
    32    14    36 1   
    33    14    37 1   
    34    14    38 1   
    35    15    16 ar  
    36    15    39 1   
    37    16    18 1   
    38    19    25 2   
    39    20    25 2   
    40    21    26 2   
    41    22    26 2   
    42    26    40 1   
@<TRIPOS>SUBSTRUCTURE
     1 Y0P         1 TEMP              0 ****  ****    0 ROOT
