@<TRIPOS>MOLECULE
Y0R
   33    35     1     0     0
SMALL
abcg2


@<TRIPOS>ATOM
      1 S1           4.9350    -0.5970    -0.2610 sy         1 Y0R       1.182600
      2 N2           5.1800    -1.1440     1.2730 n8         1 Y0R      -1.013100
      3 O5           5.9430     0.3580    -0.6910 o          1 Y0R      -0.546000
      4 O6           4.6770    -1.7780    -1.0670 o          1 Y0R      -0.546000
      5 C7           3.4440     0.2920    -0.0870 cc         1 Y0R      -0.449500
      6 S8           1.9390    -0.5310    -0.0330 ss         1 Y0R       0.341000
      7 C9           1.0970     0.9580     0.1430 cc         1 Y0R      -0.199500
      8 C10          1.9550     2.0260     0.1650 cd         1 Y0R      -0.134000
      9 C11          3.3080     1.6430     0.0290 cd         1 Y0R       0.006000
     10 C12         -0.3450     0.9950     0.2360 cc         1 Y0R       0.260500
     11 C13         -1.2740     0.0040     0.0350 cd         1 Y0R      -0.185000
     12 N14         -2.4530     0.6200     0.2380 na         1 Y0R       0.231000
     13 N15         -2.2700     1.8990     0.5430 nd         1 Y0R      -0.184800
     14 N16         -1.0120     2.1340     0.5420 nc         1 Y0R      -0.337000
     15 C23         -7.6930    -1.5990    -0.1700 c3         1 Y0R      -0.050800
     16 C24         -3.7550     0.0740     0.1510 ca         1 Y0R      -0.012200
     17 C25         -4.8090     0.8730    -0.2690 ca         1 Y0R      -0.095500
     18 C26         -6.0800     0.3280    -0.3500 ca         1 Y0R      -0.100500
     19 C27         -6.3210    -1.0080    -0.0370 ca         1 Y0R      -0.061300
     20 C28         -5.2430    -1.7870     0.3800 ca         1 Y0R      -0.100500
     21 C29         -3.9680    -1.2550     0.4840 ca         1 Y0R      -0.095500
     22 H1N2         5.7890    -1.9570     1.2910 hn         1 Y0R       0.476000
     23 H2N2         5.5270    -0.4250     1.9000 hn         1 Y0R       0.476000
     24 H10          1.6260     3.0500     0.2610 ha         1 Y0R       0.156000
     25 H11          4.1340     2.3380     0.0160 ha         1 Y0R       0.151000
     26 H13         -1.1890    -1.0310    -0.2490 h4         1 Y0R       0.177000
     27 H123        -7.8290    -2.0380    -1.1600 hc         1 Y0R       0.048367
     28 H223        -7.8610    -2.3900     0.5600 hc         1 Y0R       0.048367
     29 H323        -8.4680    -0.8450    -0.0390 hc         1 Y0R       0.048367
     30 H25         -4.6440     1.9080    -0.5330 ha         1 Y0R       0.134000
     31 H26         -6.8990     0.9580    -0.6740 ha         1 Y0R       0.122000
     32 H28         -5.4000    -2.8260     0.6420 ha         1 Y0R       0.122000
     33 H29         -3.1540    -1.8760     0.8360 ha         1 Y0R       0.134000
@<TRIPOS>BOND
     1     1     2 1   
     2     1     3 2   
     3     1     4 2   
     4     1     5 1   
     5     2    22 1   
     6     2    23 1   
     7     5     6 1   
     8     5     9 2   
     9     6     7 1   
    10     7     8 2   
    11     7    10 1   
    12     8     9 1   
    13     8    24 1   
    14     9    25 1   
    15    10    11 2   
    16    10    14 1   
    17    11    12 1   
    18    11    26 1   
    19    12    13 1   
    20    12    16 1   
    21    13    14 2   
    22    15    19 1   
    23    15    27 1   
    24    15    28 1   
    25    15    29 1   
    26    16    17 ar  
    27    16    21 ar  
    28    17    18 ar  
    29    17    30 1   
    30    18    19 ar  
    31    18    31 1   
    32    19    20 ar  
    33    20    21 ar  
    34    20    32 1   
    35    21    33 1   
@<TRIPOS>SUBSTRUCTURE
     1 Y0R         1 TEMP              0 ****  ****    0 ROOT
