@<TRIPOS>MOLECULE
Y0R
   33    35     1     0     0
SMALL
No Charge or Current Charge


@<TRIPOS>ATOM
      1 S1           4.7560    -0.8040    -0.6070 sy         1 Y0R       1.182600
      2 N2           5.1750    -1.3540     0.8660 n8         1 Y0R      -1.013100
      3 O5           5.8380     0.1070    -0.9690 o          1 Y0R      -0.546000
      4 O6           4.3850    -1.9800    -1.3910 o          1 Y0R      -0.546000
      5 C7           3.3270     0.1290    -0.1800 cc         1 Y0R      -0.449500
      6 S8           1.7220    -0.5700    -0.3040 ss         1 Y0R       0.341000
      7 C9           1.0100     0.9430     0.2500 cc         1 Y0R      -0.199500
      8 C10          1.9670     1.9010     0.4900 cd         1 Y0R      -0.134000
      9 C11          3.2880     1.4390     0.2400 cd         1 Y0R       0.006000
     10 C12         -0.3970     1.1610     0.4280 cc         1 Y0R       0.260500
     11 C13         -1.3340     0.2060     0.1820 cd         1 Y0R      -0.185000
     12 N14         -2.4810     0.8820     0.5070 na         1 Y0R       0.231000
     13 N15         -2.2630     2.1770     0.8860 nd         1 Y0R      -0.184800
     14 N16         -0.9600     2.3380     0.8540 nc         1 Y0R      -0.337000
     15 C23         -7.5170    -1.7500    -0.3380 c3         1 Y0R      -0.050800
     16 C24         -3.7030     0.2390     0.3030 ca         1 Y0R      -0.012200
     17 C25         -4.6690     0.8090    -0.5490 ca         1 Y0R      -0.095500
     18 C26         -5.9020     0.1660    -0.7560 ca         1 Y0R      -0.100500
     19 C27         -6.1840    -1.0530    -0.1110 ca         1 Y0R      -0.061300
     20 C28         -5.2210    -1.6230     0.7420 ca         1 Y0R      -0.100500
     21 C29         -3.9870    -0.9810     0.9500 ca         1 Y0R      -0.095500
     22 H1N2         6.1290    -1.0090     0.9250 hn         1 Y0R       0.476000
     23 H2N2         4.6480    -0.7240     1.4630 hn         1 Y0R       0.476000
     24 H10          1.7470     2.9080     0.8320 ha         1 Y0R       0.156000
     25 H11          4.1710     2.0610     0.3690 ha         1 Y0R       0.151000
     26 H13         -1.2850    -0.8160    -0.1700 h4         1 Y0R       0.177000
     27 H123        -7.4550    -2.4420    -1.1860 hc         1 Y0R       0.048367
     28 H223        -7.8220    -2.3270     0.5430 hc         1 Y0R       0.048367
     29 H323        -8.3150    -1.0290    -0.5500 hc         1 Y0R       0.048367
     30 H25         -4.4630     1.7510    -1.0540 ha         1 Y0R       0.134000
     31 H26         -6.6370     0.6150    -1.4200 ha         1 Y0R       0.122000
     32 H28         -5.4270    -2.5660     1.2450 ha         1 Y0R       0.122000
     33 H29         -3.2540    -1.4320     1.6170 ha         1 Y0R       0.134000
@<TRIPOS>BOND
     1     1     2 1   
     2     1     3 2   
     3     1     4 2   
     4     1     5 1   
     5     2    22 1   
     6     2    23 1   
     7     5     6 1   
     8     5     9 2   
     9     6     7 1   
    10     7     8 2   
    11     7    10 1   
    12     8     9 1   
    13     8    24 1   
    14     9    25 1   
    15    10    11 2   
    16    10    14 1   
    17    11    12 1   
    18    11    26 1   
    19    12    13 1   
    20    12    16 1   
    21    13    14 2   
    22    15    19 1   
    23    15    27 1   
    24    15    28 1   
    25    15    29 1   
    26    16    17 ar  
    27    16    21 ar  
    28    17    18 ar  
    29    17    30 1   
    30    18    19 ar  
    31    18    31 1   
    32    19    20 ar  
    33    20    21 ar  
    34    20    32 1   
    35    21    33 1   
@<TRIPOS>SUBSTRUCTURE
     1 Y0R         1 TEMP              0 ****  ****    0 ROOT
