@<TRIPOS>MOLECULE
Y0S
   29    30     1     0     0
SMALL
No Charge or Current Charge


@<TRIPOS>ATOM
      1 C13        -28.2460    -8.0550   -26.4630 ca         1 Y0S      -0.119500
      2 C15        -29.1250    -7.1750   -28.5480 ca         1 Y0S      -0.119500
      3 C02        -24.8770    -3.1850   -31.5220 cc         1 Y0S      -0.085300
      4 C03        -25.1830    -2.1930   -32.4910 cc         1 Y0S      -0.128000
      5 C04        -25.5330    -0.9750   -31.9700 cd         1 Y0S      -0.239000
      6 C06        -25.0010    -2.7080   -30.2380 cd         1 Y0S      -0.223300
      7 C07        -24.7700    -3.4520   -28.9520 c3         1 Y0S       0.181300
      8 C09        -25.8810    -5.2900   -27.6620 c          1 Y0S       0.611700
      9 C11        -27.0550    -6.2480   -27.6160 ca         1 Y0S      -0.150600
     10 C12        -27.1700    -7.1540   -26.5360 ca         1 Y0S      -0.073000
     11 C14        -29.2240    -8.0670   -27.4690 ca         1 Y0S      -0.090000
     12 C16        -28.0510    -6.2710   -28.6250 ca         1 Y0S      -0.073000
     13 N08        -25.8290    -4.4270   -28.7310 ns         1 Y0S      -0.514900
     14 O10        -25.0140    -5.2750   -26.7980 o          1 Y0S      -0.584100
     15 S05        -25.4980    -1.0050   -30.2030 ss         1 Y0S       0.196000
     16 H1         -28.3200    -8.7460   -25.6260 ha         1 Y0S       0.116500
     17 H2         -29.8830    -7.1840   -29.3280 ha         1 Y0S       0.116500
     18 H3         -23.5660    -4.8920   -31.3970 hc         1 Y0S       0.042033
     19 H4         -25.2680    -5.2980   -31.6830 hc         1 Y0S       0.042033
     20 H5         -24.2760    -4.6470   -33.0000 hc         1 Y0S       0.042033
     21 H6         -25.1390    -2.3960   -33.5580 ha         1 Y0S       0.132000
     22 H7         -25.8070    -0.0700   -32.4980 h4         1 Y0S       0.149000
     23 H8         -23.8030    -3.9710   -28.9940 h1         1 Y0S       0.059200
     24 H9         -24.7470    -2.7480   -28.1090 h1         1 Y0S       0.059200
     25 H10        -26.4230    -7.1620   -25.7450 ha         1 Y0S       0.123000
     26 H11        -30.0570    -8.7650   -27.4120 ha         1 Y0S       0.115000
     27 H12        -28.0100    -5.5980   -29.4770 ha         1 Y0S       0.123000
     28 H13        -26.5710    -4.4840   -29.4130 hn         1 Y0S       0.319500
     29 C01        -24.4750    -4.5800   -31.9240 c3         1 Y0S      -0.027800
@<TRIPOS>BOND
     1     1    10 ar  
     2     1    11 ar  
     3     1    16 1   
     4     2    11 ar  
     5     2    12 ar  
     6     2    17 1   
     7     3     4 1   
     8     3     6 2   
     9     3    29 1   
    10     4     5 2   
    11     4    21 1   
    12     5    15 1   
    13     5    22 1   
    14     6     7 1   
    15     6    15 1   
    16     7    13 1   
    17     7    23 1   
    18     7    24 1   
    19     8     9 1   
    20     8    13 1   
    21     8    14 2   
    22     9    10 ar  
    23     9    12 ar  
    24    10    25 1   
    25    11    26 1   
    26    12    27 1   
    27    13    28 1   
    28    18    29 1   
    29    19    29 1   
    30    20    29 1   
@<TRIPOS>SUBSTRUCTURE
     1 Y0S         1 TEMP              0 ****  ****    0 ROOT
