@<TRIPOS>MOLECULE
Y0S
   29    30     1     0     0
SMALL
abcg2


@<TRIPOS>ATOM
      1 C13        -28.5630    -8.3580   -27.2850 ca         1 Y0S      -0.119500
      2 C15        -29.7240    -6.2550   -27.2080 ca         1 Y0S      -0.119500
      3 C02        -24.2210    -3.0990   -31.3890 cc         1 Y0S      -0.085300
      4 C03        -24.8250    -2.6800   -32.6140 cc         1 Y0S      -0.128000
      5 C04        -26.1800    -2.6020   -32.5470 cd         1 Y0S      -0.239000
      6 C06        -25.1540    -3.3290   -30.4180 cd         1 Y0S      -0.223300
      7 C07        -24.9400    -3.7160   -28.9860 c3         1 Y0S       0.181300
      8 C09        -26.2820    -5.7390   -28.7320 c          1 Y0S       0.611700
      9 C11        -27.4850    -6.3600   -28.0990 ca         1 Y0S      -0.150600
     10 C12        -27.4700    -7.7340   -27.8640 ca         1 Y0S      -0.073000
     11 C14        -29.6930    -7.6200   -26.9560 ca         1 Y0S      -0.090000
     12 C16        -28.6250    -5.6260   -27.7750 ca         1 Y0S      -0.073000
     13 N08        -26.0530    -4.4460   -28.4290 ns         1 Y0S      -0.514900
     14 O10        -25.5510    -6.3780   -29.4720 o          1 Y0S      -0.584100
     15 S05        -26.7540    -3.0370   -30.9920 ss         1 Y0S       0.196000
     16 H1         -28.5350    -9.4220   -27.0930 ha         1 Y0S       0.116500
     17 H2         -30.6070    -5.6780   -26.9680 ha         1 Y0S       0.116500
     18 H3         -22.2820    -2.2860   -30.9320 hc         1 Y0S       0.042033
     19 H4         -22.4820    -3.9610   -30.4400 hc         1 Y0S       0.042033
     20 H5         -22.2680    -3.5590   -32.1400 hc         1 Y0S       0.042033
     21 H6         -24.2600    -2.4600   -33.5090 ha         1 Y0S       0.132000
     22 H7         -26.8700    -2.3310   -33.3310 h4         1 Y0S       0.149000
     23 H8         -24.0190    -4.2970   -28.9000 h1         1 Y0S       0.059200
     24 H9         -24.8050    -2.8250   -28.3710 h1         1 Y0S       0.059200
     25 H10        -26.5950    -8.3140   -28.1260 ha         1 Y0S       0.123000
     26 H11        -30.5490    -8.1080   -26.5090 ha         1 Y0S       0.115000
     27 H12        -28.6800    -4.5640   -27.9830 ha         1 Y0S       0.123000
     28 H13        -26.5930    -3.9990   -27.7070 hn         1 Y0S       0.319500
     29 C01        -22.7400    -3.2360   -31.2120 c3         1 Y0S      -0.027800
@<TRIPOS>BOND
     1     1    10 ar  
     2     1    11 ar  
     3     1    16 1   
     4     2    11 ar  
     5     2    12 ar  
     6     2    17 1   
     7     3     4 1   
     8     3     6 2   
     9     3    29 1   
    10     4     5 2   
    11     4    21 1   
    12     5    15 1   
    13     5    22 1   
    14     6     7 1   
    15     6    15 1   
    16     7    13 1   
    17     7    23 1   
    18     7    24 1   
    19     8     9 1   
    20     8    13 1   
    21     8    14 2   
    22     9    10 ar  
    23     9    12 ar  
    24    10    25 1   
    25    11    26 1   
    26    12    27 1   
    27    13    28 1   
    28    18    29 1   
    29    19    29 1   
    30    20    29 1   
@<TRIPOS>SUBSTRUCTURE
     1 Y0S         1 TEMP              0 ****  ****    0 ROOT
