@<TRIPOS>MOLECULE
Y0T
   50    52     1     0     0
SMALL
No Charge or Current Charge


@<TRIPOS>ATOM
      1 C1          21.9840   -41.1780    31.6540 ca         1 Y0T      -0.145000
      2 C2          22.0320   -42.5830    31.6710 ca         1 Y0T       0.002000
      3 C3          22.1570   -43.2980    30.4600 ca         1 Y0T      -0.331500
      4 C4          19.9560   -45.6670    29.0210 c3         1 Y0T       0.222800
      5 O5          18.9690   -38.4980    29.0330 o          1 Y0T      -0.530000
      6 O6          22.7550   -45.6020    29.2450 o          1 Y0T      -0.542000
      7 C7          17.8030   -43.2430    30.3990 ca         1 Y0T      -0.130000
      8 C9          18.1490   -40.9510    29.6440 ca         1 Y0T      -0.270500
      9 C10         16.3490   -38.7950    29.3580 ca         1 Y0T      -0.283500
     10 C13         13.7380   -38.2380    28.4730 ca         1 Y0T       0.176100
     11 C14         14.8160   -38.1470    27.5690 ca         1 Y0T       0.024100
     12 C15         16.1230   -38.4280    28.0120 ca         1 Y0T      -0.062000
     13 C16         18.6630   -41.4370    28.4250 ca         1 Y0T      -0.009000
     14 C17         18.7490   -42.8210    28.2010 ca         1 Y0T      -0.130000
     15 C19         22.1820   -41.1920    29.2210 ca         1 Y0T       0.011100
     16 S           22.1500   -45.0930    30.4790 sy         1 Y0T       1.185600
     17 O1          22.5020   -45.6060    31.8050 o          1 Y0T      -0.542000
     18 C18         22.2300   -42.5980    29.2330 ca         1 Y0T      -0.063000
     19 O7          22.2560   -40.5010    28.0360 oh         1 Y0T      -0.563100
     20 C           22.0570   -40.4880    30.4350 ca         1 Y0T       0.180100
     21 O           22.0090   -39.1280    30.4120 oh         1 Y0T      -0.509100
     22 N           20.5040   -45.2910    30.3340 n7         1 Y0T      -0.885300
     23 C5          18.4790   -45.2360    28.9600 c3         1 Y0T      -0.063100
     24 C6          18.3230   -43.7330    29.1860 ca         1 Y0T      -0.043300
     25 C8          17.7130   -41.8600    30.6290 ca         1 Y0T      -0.009000
     26 O4          18.0560   -38.9500    31.3840 o          1 Y0T      -0.530000
     27 O3          14.5840   -37.7870    26.2630 oh         1 Y0T      -0.561100
     28 O2          12.4770   -37.9650    28.0350 oh         1 Y0T      -0.524100
     29 C12         13.9590   -38.6070    29.8070 ca         1 Y0T      -0.144000
     30 C11         15.2620   -38.8880    30.2530 ca         1 Y0T       0.000000
     31 H1          21.8850   -40.6260    32.5840 ha         1 Y0T       0.146000
     32 H2          21.9640   -43.1070    32.6230 ha         1 Y0T       0.138000
     33 H4          20.4840   -45.1560    28.2030 h1         1 Y0T       0.058200
     34 H5          20.0430   -46.7500    28.8510 h1         1 Y0T       0.058200
     35 H8          17.4740   -43.9340    31.1710 ha         1 Y0T       0.119500
     36 H14         16.9570   -38.3630    27.3160 ha         1 Y0T       0.135000
     37 H15         19.0000   -40.7490    27.6510 ha         1 Y0T       0.138000
     38 H16         19.1570   -43.1840    27.2610 ha         1 Y0T       0.119500
     39 H17         22.3160   -43.1460    28.2960 ha         1 Y0T       0.135000
     40 H18         22.3840   -41.1370    27.2960 ho         1 Y0T       0.478000
     41 H           22.0180   -38.8860    29.4590 ho         1 Y0T       0.485000
     42 H3          20.2300   -44.3230    30.4930 hn         1 Y0T       0.485000
     43 H6          18.0700   -45.5130    27.9810 hc         1 Y0T       0.067200
     44 H7          17.9080   -45.8050    29.7030 hc         1 Y0T       0.067200
     45 H9          17.3070   -41.5020    31.5740 ha         1 Y0T       0.138000
     46 H13         15.4370   -37.7680    25.7730 ho         1 Y0T       0.481000
     47 H12         12.5730   -37.7350    27.0830 ho         1 Y0T       0.490000
     48 H11         13.1210   -38.6770    30.4960 ha         1 Y0T       0.140000
     49 H10         15.4190   -39.1770    31.2910 ha         1 Y0T       0.140000
     50 S1          18.0210   -39.1740    29.9320 sy         1 Y0T       1.053000
@<TRIPOS>BOND
     1     1     2 ar  
     2     1    20 ar  
     3     1    31 1   
     4     2     3 ar  
     5     2    32 1   
     6     3    16 1   
     7     3    18 ar  
     8     4    22 1   
     9     4    23 1   
    10     4    33 1   
    11     4    34 1   
    12     5    50 2   
    13     6    16 2   
    14     7    24 ar  
    15     7    25 ar  
    16     7    35 1   
    17     8    13 ar  
    18     8    25 ar  
    19     8    50 1   
    20     9    12 ar  
    21     9    30 ar  
    22     9    50 1   
    23    10    11 ar  
    24    10    28 1   
    25    10    29 ar  
    26    11    12 ar  
    27    11    27 1   
    28    12    36 1   
    29    13    14 ar  
    30    13    37 1   
    31    14    24 ar  
    32    14    38 1   
    33    15    18 ar  
    34    15    19 1   
    35    15    20 ar  
    36    16    17 2   
    37    16    22 1   
    38    18    39 1   
    39    19    40 1   
    40    20    21 1   
    41    21    41 1   
    42    22    42 1   
    43    23    24 1   
    44    23    43 1   
    45    23    44 1   
    46    25    45 1   
    47    26    50 2   
    48    27    46 1   
    49    28    47 1   
    50    29    30 ar  
    51    29    48 1   
    52    30    49 1   
@<TRIPOS>SUBSTRUCTURE
     1 Y0T         1 TEMP              0 ****  ****    0 ROOT
