@<TRIPOS>MOLECULE
Y0T
   50    52     1     0     0
SMALL
abcg2


@<TRIPOS>ATOM
      1 C1          21.4850   -40.8750    30.7920 ca         1 Y0T      -0.145000
      2 C2          21.4020   -42.1970    31.2030 ca         1 Y0T       0.002000
      3 C3          21.9550   -43.1940    30.4060 ca         1 Y0T      -0.331500
      4 C4          20.0770   -45.5220    28.9800 c3         1 Y0T       0.222800
      5 O5          18.8100   -38.4700    29.7340 o          1 Y0T      -0.530000
      6 O6          22.8480   -45.6220    30.1900 o          1 Y0T      -0.542000
      7 C7          17.6920   -43.3070    30.2570 ca         1 Y0T      -0.130000
      8 C9          18.0640   -40.9720    29.8920 ca         1 Y0T      -0.270500
      9 C10         16.2300   -38.8670    29.7150 ca         1 Y0T      -0.283500
     10 C13         13.7580   -38.2870    28.6180 ca         1 Y0T       0.176100
     11 C14         14.9290   -38.0690    27.8700 ca         1 Y0T       0.024100
     12 C15         16.1640   -38.3610    28.4160 ca         1 Y0T      -0.062000
     13 C16         18.7940   -41.2520    28.7410 ca         1 Y0T      -0.009000
     14 C17         18.9740   -42.5720    28.3610 ca         1 Y0T      -0.130000
     15 C19         22.6330   -41.5680    28.7820 ca         1 Y0T       0.011100
     16 S           21.8380   -44.8820    30.9110 sy         1 Y0T       1.185600
     17 O1          21.8080   -44.9260    32.3550 o          1 Y0T      -0.542000
     18 C18         22.5700   -42.8870    29.1920 ca         1 Y0T      -0.063000
     19 O7          23.1980   -41.1540    27.6110 oh         1 Y0T      -0.563100
     20 C           22.1000   -40.5530    29.5900 ca         1 Y0T       0.180100
     21 O           22.1770   -39.2570    29.2010 oh         1 Y0T      -0.509100
     22 N           20.3910   -45.4670    30.4190 n7         1 Y0T      -0.885300
     23 C5          18.6490   -45.0490    28.7070 c3         1 Y0T      -0.063100
     24 C6          18.4230   -43.6160    29.1090 ca         1 Y0T      -0.043300
     25 C8          17.5110   -41.9910    30.6570 ca         1 Y0T      -0.009000
     26 O4          17.7100   -39.2600    31.8330 o          1 Y0T      -0.530000
     27 O3          14.7420   -37.5650    26.6170 oh         1 Y0T      -0.561100
     28 O2          12.5430   -38.0040    28.0910 oh         1 Y0T      -0.524100
     29 C12         13.8430   -38.7940    29.9080 ca         1 Y0T      -0.144000
     30 C11         15.0810   -39.0900    30.4640 ca         1 Y0T       0.000000
     31 H1          21.0620   -40.0810    31.3930 ha         1 Y0T       0.146000
     32 H2          20.9170   -42.4460    32.1360 ha         1 Y0T       0.138000
     33 H4          20.7770   -44.8970    28.4230 h1         1 Y0T       0.058200
     34 H5          20.2000   -46.5470    28.6290 h1         1 Y0T       0.058200
     35 H8          17.2610   -44.1070    30.8470 ha         1 Y0T       0.119500
     36 H14         17.0650   -38.1910    27.8410 ha         1 Y0T       0.135000
     37 H15         19.2270   -40.4480    28.1630 ha         1 Y0T       0.138000
     38 H16         19.5540   -42.7960    27.4740 ha         1 Y0T       0.119500
     39 H17         23.0030   -43.6650    28.5780 ha         1 Y0T       0.135000
     40 H18         23.5330   -41.9070    27.1060 ho         1 Y0T       0.478000
     41 H           22.6200   -39.2080    28.3390 ho         1 Y0T       0.485000
     42 H3          19.6430   -45.1390    31.0190 hn         1 Y0T       0.485000
     43 H6          18.4650   -45.1730    27.6380 hc         1 Y0T       0.067200
     44 H7          17.9470   -45.6970    29.2360 hc         1 Y0T       0.067200
     45 H9          16.9510   -41.7610    31.5530 ha         1 Y0T       0.138000
     46 H13         15.5870   -37.4450    26.1630 ho         1 Y0T       0.481000
     47 H12         12.6560   -37.6580    27.1920 ho         1 Y0T       0.490000
     48 H11         12.9310   -38.9510    30.4680 ha         1 Y0T       0.140000
     49 H10         15.1490   -39.4820    31.4680 ha         1 Y0T       0.140000
     50 S1          17.8070   -39.2900    30.3860 sy         1 Y0T       1.053000
@<TRIPOS>BOND
     1     1     2 ar  
     2     1    20 ar  
     3     1    31 1   
     4     2     3 ar  
     5     2    32 1   
     6     3    16 1   
     7     3    18 ar  
     8     4    22 1   
     9     4    23 1   
    10     4    33 1   
    11     4    34 1   
    12     5    50 2   
    13     6    16 2   
    14     7    24 ar  
    15     7    25 ar  
    16     7    35 1   
    17     8    13 ar  
    18     8    25 ar  
    19     8    50 1   
    20     9    12 ar  
    21     9    30 ar  
    22     9    50 1   
    23    10    11 ar  
    24    10    28 1   
    25    10    29 ar  
    26    11    12 ar  
    27    11    27 1   
    28    12    36 1   
    29    13    14 ar  
    30    13    37 1   
    31    14    24 ar  
    32    14    38 1   
    33    15    18 ar  
    34    15    19 1   
    35    15    20 ar  
    36    16    17 2   
    37    16    22 1   
    38    18    39 1   
    39    19    40 1   
    40    20    21 1   
    41    21    41 1   
    42    22    42 1   
    43    23    24 1   
    44    23    43 1   
    45    23    44 1   
    46    25    45 1   
    47    26    50 2   
    48    27    46 1   
    49    28    47 1   
    50    29    30 ar  
    51    29    48 1   
    52    30    49 1   
@<TRIPOS>SUBSTRUCTURE
     1 Y0T         1 TEMP              0 ****  ****    0 ROOT
