@<TRIPOS>MOLECULE
Y0V
   23    24     1     0     0
SMALL
bcc


@<TRIPOS>ATOM
      1 C1          -0.2530    -2.5160     0.0650 ca         1 Y0V      -0.280600
      2 I1          -2.8540     0.9470    -0.2620 i          1 Y0V      -0.183900
      3 N1           0.2730     1.6520     0.0080 na         1 Y0V       0.014800
      4 O1           0.5340    -4.7480     0.1840 o          1 Y0V      -0.777300
      5 C2           1.0140    -1.9680     0.1630 ca         1 Y0V      -0.007000
      6 I2           3.1320     0.1970     0.3150 i          1 Y0V      -0.206900
      7 O2          -2.5890    -2.1810    -0.1420 oh         1 Y0V      -0.571100
      8 C3           1.1960    -0.5960     0.1470 ca         1 Y0V      -0.022100
      9 O3          -1.6570    -4.4010    -0.0090 o          1 Y0V      -0.777300
     10 C4           0.0980     0.2570     0.0280 ca         1 Y0V       0.068800
     11 C5          -1.1770    -0.2900    -0.0730 ca         1 Y0V      -0.047100
     12 C6          -1.3790    -1.6760    -0.0520 ca         1 Y0V       0.268100
     13 C7           0.5130     2.4010    -1.1110 cc         1 Y0V      -0.136300
     14 C8           0.6210     3.7090    -0.7260 cd         1 Y0V      -0.214000
     15 C9           0.4390     3.7520     0.6830 cd         1 Y0V      -0.214000
     16 C10          0.2270     2.4680     1.1050 cc         1 Y0V      -0.136300
     17 C11         -0.4480    -4.0160     0.0840 c          1 Y0V       0.938200
     18 H2           1.8610    -2.6350     0.2550 ha         1 Y0V       0.162000
     19 HO2         -2.4160    -3.2160    -0.1000 ho         1 Y0V       0.522000
     20 H7           0.5850     1.9380    -2.0830 h4         1 Y0V       0.165500
     21 H8           0.8100     4.5450    -1.3810 ha         1 Y0V       0.136000
     22 H9           0.4630     4.6260     1.3140 ha         1 Y0V       0.136000
     23 H10          0.0450     2.0650     2.0890 h4         1 Y0V       0.165500
@<TRIPOS>BOND
     1     1     5 ar  
     2     1    12 ar  
     3     1    17 1   
     4     2    11 1   
     5     3    10 1   
     6     3    13 1   
     7     3    16 1   
     8     4    17 1   
     9     5     8 ar  
    10     5    18 1   
    11     6     8 1   
    12     7    12 1   
    13     7    19 1   
    14     8    10 ar  
    15     9    17 1   
    16    10    11 ar  
    17    11    12 ar  
    18    13    14 2   
    19    13    20 1   
    20    14    15 1   
    21    14    21 1   
    22    15    16 2   
    23    15    22 1   
    24    16    23 1   
@<TRIPOS>SUBSTRUCTURE
     1 Y0V         1 TEMP              0 ****  ****    0 ROOT
