@<TRIPOS>MOLECULE
Y0V
   23    24     1     0     0
SMALL
No Charge or Current Charge


@<TRIPOS>ATOM
      1 C1          -0.2760    -2.5390     0.0670 ca         1 Y0V      -0.280600
      2 I1          -2.9550     1.0460    -0.2990 i          1 Y0V      -0.321000
      3 N1           0.2660     1.6620     0.0080 na         1 Y0V       0.116200
      4 O1           0.5690    -4.7280     0.2120 o          1 Y0V      -0.672000
      5 C2           1.0130    -1.9680     0.1820 ca         1 Y0V       0.011000
      6 I2           3.2220     0.2070     0.3450 i          1 Y0V      -0.344000
      7 O2          -2.6420    -2.1940    -0.1800 oh         1 Y0V      -0.610100
      8 C3           1.1940    -0.5770     0.1620 ca         1 Y0V       0.115000
      9 O3          -1.5610    -4.5010    -0.0090 o          1 Y0V      -0.672000
     10 C4           0.0850     0.2820     0.0270 ca         1 Y0V       0.068800
     11 C5          -1.2080    -0.2700    -0.0880 ca         1 Y0V       0.090000
     12 C6          -1.3860    -1.6730    -0.0680 ca         1 Y0V       0.268100
     13 C7           0.4850     2.3870    -1.1580 cc         1 Y0V      -0.169000
     14 C8           0.6110     3.6820    -0.7240 cd         1 Y0V      -0.196000
     15 C9           0.4700     3.7200     0.6850 cd         1 Y0V      -0.196000
     16 C10          0.2530     2.4500     1.1530 cc         1 Y0V      -0.169000
     17 C11         -0.4320    -4.0410     0.0930 c          1 Y0V       0.727600
     18 H2           1.8930    -2.6000     0.2870 ha         1 Y0V       0.144000
     19 HO2         -2.5060    -3.1840    -0.1390 ho         1 Y0V       0.561000
     20 H7           0.5290     1.9410    -2.1440 h4         1 Y0V       0.147500
     21 H8           0.7920     4.5410    -1.3640 ha         1 Y0V       0.118000
     22 H9           0.5240     4.6140     1.3000 ha         1 Y0V       0.118000
     23 H10          0.0970     2.0580     2.1510 h4         1 Y0V       0.147500
@<TRIPOS>BOND
     1     1     5 ar  
     2     1    12 ar  
     3     1    17 1   
     4     2    11 1   
     5     3    10 1   
     6     3    13 1   
     7     3    16 1   
     8     4    17 1   
     9     5     8 ar  
    10     5    18 1   
    11     6     8 1   
    12     7    12 1   
    13     7    19 1   
    14     8    10 ar  
    15     9    17 1   
    16    10    11 ar  
    17    11    12 ar  
    18    13    14 2   
    19    13    20 1   
    20    14    15 1   
    21    14    21 1   
    22    15    16 2   
    23    15    22 1   
    24    16    23 1   
@<TRIPOS>SUBSTRUCTURE
     1 Y0V         1 TEMP              0 ****  ****    0 ROOT
