@<TRIPOS>MOLECULE
Y0W
   30    32     1     0     0
SMALL
abcg2


@<TRIPOS>ATOM
      1 C10         17.1330    15.7890     0.2980 cc         1 Y0W       0.424800
      2 C13         18.5100    18.5970    -0.7960 c5         1 Y0W       0.135800
      3 C15         16.3740    17.7280    -1.0850 c5         1 Y0W       0.147800
      4 C17         16.9610    13.6630     0.3050 ca         1 Y0W       0.061400
      5 C02         17.0150     9.9190     0.2250 c3         1 Y0W       0.359300
      6 C05         17.4660    11.3420     0.1420 ca         1 Y0W      -0.221300
      7 C06         18.8080    11.6430    -0.1310 ca         1 Y0W      -0.051000
      8 C07         19.2510    12.9520    -0.1950 ca         1 Y0W      -0.120000
      9 C08         18.3080    13.9460     0.0200 ca         1 Y0W      -0.060200
     10 C11         16.8010    17.2430     0.3210 c5         1 Y0W      -0.124000
     11 C12         17.9930    18.1690     0.6040 c5         1 Y0W      -0.115400
     12 C18         16.5300    12.3430     0.3690 ca         1 Y0W       0.009000
     13 F01         15.8910     9.7050    -0.4750 f          1 Y0W      -0.115000
     14 F03         17.9260     9.0550    -0.2370 f          1 Y0W      -0.115000
     15 F04         16.7440     9.5500     1.4880 f          1 Y0W      -0.115000
     16 N09         18.3780    15.3100     0.0210 na         1 Y0W      -0.313600
     17 N14         17.6000    18.0340    -1.7950 n7         1 Y0W      -0.838400
     18 N16         16.2610    14.8310     0.4760 nd         1 Y0W      -0.567100
     19 H2          18.5190    19.6870    -0.8680 h1         1 Y0W       0.051700
     20 H3          15.7740    18.6360    -0.9660 h1         1 Y0W       0.070200
     21 H4          15.7680    17.0050    -1.6310 h1         1 Y0W       0.070200
     22 H5          19.5220    10.8490    -0.3000 ha         1 Y0W       0.131000
     23 H6          20.2860    13.1790    -0.4110 ha         1 Y0W       0.124000
     24 H7          15.9950    17.3800     1.0430 hc         1 Y0W       0.098700
     25 H8          18.7640    17.7050     1.2190 hc         1 Y0W       0.056200
     26 H9          17.6420    19.0390     1.1600 hc         1 Y0W       0.056200
     27 H10         15.4920    12.1210     0.5860 ha         1 Y0W       0.145000
     28 H11         19.2150    15.8540    -0.1220 hn         1 Y0W       0.359000
     29 H12         17.9920    17.1790    -2.1660 hn         1 Y0W       0.404000
     30 H1          19.5290    18.2590    -0.9870 h1         1 Y0W       0.051700
@<TRIPOS>BOND
     1     1    10 1   
     2     1    16 1   
     3     1    18 2   
     4     2    11 1   
     5     2    17 1   
     6     2    19 1   
     7     2    30 1   
     8     3    10 1   
     9     3    17 1   
    10     3    20 1   
    11     3    21 1   
    12     4     9 ar  
    13     4    12 ar  
    14     4    18 1   
    15     5     6 1   
    16     5    13 1   
    17     5    14 1   
    18     5    15 1   
    19     6     7 ar  
    20     6    12 ar  
    21     7     8 ar  
    22     7    22 1   
    23     8     9 ar  
    24     8    23 1   
    25     9    16 1   
    26    10    11 1   
    27    10    24 1   
    28    11    25 1   
    29    11    26 1   
    30    12    27 1   
    31    16    28 1   
    32    17    29 1   
@<TRIPOS>SUBSTRUCTURE
     1 Y0W         1 TEMP              0 ****  ****    0 ROOT
