@<TRIPOS>MOLECULE
Y0W
   30    32     1     0     0
SMALL
No Charge or Current Charge


@<TRIPOS>ATOM
      1 C10         17.0960    15.8110     0.2530 cc         1 Y0W       0.424800
      2 C13         18.5250    18.6060    -0.8580 c5         1 Y0W       0.135800
      3 C15         16.3230    17.8270    -1.0610 c5         1 Y0W       0.147800
      4 C17         16.9520    13.6560     0.2400 ca         1 Y0W       0.061400
      5 C02         17.0240     9.8180     0.1840 c3         1 Y0W       0.359300
      6 C05         17.4660    11.2830     0.1320 ca         1 Y0W      -0.221300
      7 C06         18.8390    11.6140    -0.0430 ca         1 Y0W      -0.051000
      8 C07         19.2540    12.9610    -0.0810 ca         1 Y0W      -0.120000
      9 C08         18.2720    13.9450     0.0630 ca         1 Y0W      -0.060200
     10 C11         16.7900    17.2980     0.3140 c5         1 Y0W      -0.124000
     11 C12         18.0280    18.2200     0.5700 c5         1 Y0W      -0.115400
     12 C18         16.5120    12.3240     0.2830 ca         1 Y0W       0.009000
     13 F01         15.7510     9.6480    -0.2410 f          1 Y0W      -0.115000
     14 F03         17.7980     9.0200    -0.5880 f          1 Y0W      -0.115000
     15 F04         17.0880     9.3310     1.4440 f          1 Y0W      -0.115000
     16 N09         18.3810    15.3000     0.0700 na         1 Y0W      -0.313600
     17 N14         17.5940    17.9500    -1.8090 n7         1 Y0W      -0.838400
     18 N16         16.1930    14.8170     0.3630 nd         1 Y0W      -0.567100
     19 H2          18.4900    19.6980    -0.9830 h1         1 Y0W       0.051700
     20 H3          15.8340    18.8070    -0.9590 h1         1 Y0W       0.070200
     21 H4          15.6110    17.1480    -1.5550 h1         1 Y0W       0.070200
     22 H5          19.5860    10.8290    -0.1460 ha         1 Y0W       0.131000
     23 H6          20.3020    13.2220    -0.2150 ha         1 Y0W       0.124000
     24 H7          16.0170    17.4650     1.0720 hc         1 Y0W       0.098700
     25 H8          18.8060    17.7450     1.1780 hc         1 Y0W       0.056200
     26 H9          17.7280    19.1240     1.1140 hc         1 Y0W       0.056200
     27 H10         15.4560    12.1100     0.4320 ha         1 Y0W       0.145000
     28 H11         19.2290    15.8430    -0.0180 hn         1 Y0W       0.359000
     29 H12         17.9390    17.0030    -2.0080 hn         1 Y0W       0.404000
     30 H1          19.5630    18.2900    -1.0360 h1         1 Y0W       0.051700
@<TRIPOS>BOND
     1     1    10 1   
     2     1    16 1   
     3     1    18 2   
     4     2    11 1   
     5     2    17 1   
     6     2    19 1   
     7     2    30 1   
     8     3    10 1   
     9     3    17 1   
    10     3    20 1   
    11     3    21 1   
    12     4     9 ar  
    13     4    12 ar  
    14     4    18 1   
    15     5     6 1   
    16     5    13 1   
    17     5    14 1   
    18     5    15 1   
    19     6     7 ar  
    20     6    12 ar  
    21     7     8 ar  
    22     7    22 1   
    23     8     9 ar  
    24     8    23 1   
    25     9    16 1   
    26    10    11 1   
    27    10    24 1   
    28    11    25 1   
    29    11    26 1   
    30    12    27 1   
    31    16    28 1   
    32    17    29 1   
@<TRIPOS>SUBSTRUCTURE
     1 Y0W         1 TEMP              0 ****  ****    0 ROOT
