@<TRIPOS>MOLECULE
Y0X
   84    89     1     0     0
SMALL
bcc


@<TRIPOS>ATOM
      1 S           11.9300     2.6520     0.6490 s6         1 Y0X       1.274100
      2 O1          11.4690     3.0210     2.0010 o          1 Y0X      -0.709700
      3 O2          11.4580     3.5840    -0.3920 o          1 Y0X      -0.709700
      4 O4          13.3820     2.4100     0.5850 o          1 Y0X      -0.709700
      5 CAA          2.1240     4.0620    -0.7500 c3         1 Y0X       0.123700
      6 CAB         -2.0860    -3.9110    -0.7970 c3         1 Y0X       0.123700
      7 OAE         12.5290    -2.7320    -2.1120 o          1 Y0X      -0.710033
      8 OAF         12.2760    -3.7520     0.1080 o          1 Y0X      -0.710033
      9 OAM         13.9960    -2.0360    -0.2610 o          1 Y0X      -0.710033
     10 CAP          1.1790     1.5070    -0.1170 ca         1 Y0X      -0.219000
     11 CAQ         -1.6530     0.8960     0.5360 ca         1 Y0X      -0.159500
     12 CAR          2.5350     1.8140    -0.1210 ca         1 Y0X       0.157600
     13 CAS         -3.0000     0.5950     0.5250 ca         1 Y0X      -0.107500
     14 CAT          7.5220     1.8250     0.3960 ca         1 Y0X      -0.081500
     15 CAU         -7.4550    -1.8150     0.3080 ca         1 Y0X      -0.081500
     16 CAV         11.9910    -0.0020     0.0520 ca         1 Y0X       0.110500
     17 CAW          8.8690     1.9900     0.4420 ca         1 Y0X      -0.152000
     18 CAX         11.1670     1.0710     0.2860 ca         1 Y0X      -0.332500
     19 CAY         -8.7940    -2.0410     0.3010 ca         1 Y0X      -0.152000
     20 CAZ          1.6700    -0.7610     0.5160 ca         1 Y0X      -0.159500
     21 CBA         -1.1540    -1.3590    -0.1380 ca         1 Y0X      -0.219000
     22 CBB        -11.9890    -0.1580    -0.0060 ca         1 Y0X       0.110500
     23 NBD         -5.6220    -0.1430     0.1680 ne         1 Y0X      -0.222900
     24 NBE          4.8200     1.1830     0.1750 ne         1 Y0X      -0.229900
     25 NBF         -4.7910    -1.0690     0.1750 nf         1 Y0X      -0.229900
     26 OBG          3.0260     3.0190    -0.4300 os         1 Y0X      -0.283400
     27 OBH         -2.9930    -2.8760    -0.4640 os         1 Y0X      -0.283400
     28 CBI         10.1180    -1.5200    -0.2560 ca         1 Y0X       0.332600
     29 CBJ        -10.1820     1.4640    -0.0800 ca         1 Y0X       0.332600
     30 CBK          0.7310     0.2230     0.1990 cp         1 Y0X      -0.002500
     31 CBL         -0.7110    -0.0790     0.1990 cp         1 Y0X      -0.002500
     32 CBM          7.8140    -0.5360    -0.0630 ca         1 Y0X       0.241600
     33 CBN         -7.8400     0.5660     0.0800 ca         1 Y0X       0.241600
     34 CBO          6.9740     0.5550     0.1440 ca         1 Y0X      -0.093600
     35 CBP         -6.9570    -0.5060     0.1880 ca         1 Y0X      -0.093600
     36 CBQ          3.4760     0.8090     0.1780 ca         1 Y0X       0.087400
     37 CBR         -3.4540    -0.6780     0.1850 ca         1 Y0X       0.087400
     38 CBS          3.0180    -0.4670     0.5010 ca         1 Y0X      -0.107500
     39 CBT         -2.5080    -1.6730    -0.1400 ca         1 Y0X       0.157600
     40 CBU         11.4980    -1.2720    -0.2220 ca         1 Y0X      -0.383000
     41 CBV        -11.5500     1.1570    -0.0940 ca         1 Y0X      -0.383000
     42 CBW        -11.1230    -1.2160     0.1170 ca         1 Y0X      -0.332500
     43 CBX          9.7630     0.9000     0.2330 ca         1 Y0X       0.160500
     44 CBY         -9.7300    -0.9750     0.1620 ca         1 Y0X       0.160500
     45 CBZ          9.2300    -0.4020    -0.0320 ca         1 Y0X      -0.187500
     46 CCA         -9.2500     0.3690     0.0560 ca         1 Y0X      -0.187500
     47 SCB         12.6760    -2.5490    -0.6590 s6         1 Y0X       1.277600
     48 SCC        -11.8190    -2.8660     0.2070 s6         1 Y0X       1.274100
     49 SCD        -12.7890     2.4510    -0.1100 s6         1 Y0X       1.277600
     50 HAA          2.7310     4.9410    -0.9520 h1         1 Y0X       0.034867
     51 HAAA         1.5320     3.8290    -1.6380 h1         1 Y0X       0.034867
     52 HAAB         1.4480     4.2850     0.0800 h1         1 Y0X       0.034867
     53 HAB         -1.4960    -3.6640    -1.6830 h1         1 Y0X       0.034867
     54 HABA        -1.4080    -4.1390     0.0290 h1         1 Y0X       0.034867
     55 HABB        -2.6890    -4.7890    -1.0100 h1         1 Y0X       0.034867
     56 HNAC        10.2960    -3.5340    -0.3870 hn         1 Y0X       0.440800
     57 HNAA         8.6800    -2.9610    -0.4150 hn         1 Y0X       0.440800
     58 HNAD       -10.4350     3.4160    -0.5480 hn         1 Y0X       0.440800
     59 HNAB        -8.8040     2.9570    -0.2980 hn         1 Y0X       0.440800
     60 HOAK         6.2880    -1.6030    -0.2640 ho         1 Y0X       0.448500
     61 HOAL        -6.3600     1.7140     0.0150 ho         1 Y0X       0.448500
     62 HAP          0.4530     2.2620    -0.3850 ha         1 Y0X       0.132500
     63 HAQ         -1.3350     1.8830     0.8430 ha         1 Y0X       0.127000
     64 HAS         -3.7190     1.3530     0.8080 ha         1 Y0X       0.142000
     65 HAT          6.8600     2.6650     0.5570 ha         1 Y0X       0.136500
     66 HAU         -6.7600    -2.6370     0.4100 ha         1 Y0X       0.136500
     67 HAV         13.0610     0.1370     0.0850 ha         1 Y0X       0.182000
     68 HAW          9.2590     2.9750     0.6410 ha         1 Y0X       0.166000
     69 HAY         -9.1440    -3.0540     0.4120 ha         1 Y0X       0.166000
     70 HAZ          1.3500    -1.7510     0.8110 ha         1 Y0X       0.127000
     71 HBA         -0.4270    -2.1060    -0.4230 ha         1 Y0X       0.132500
     72 HBB        -13.0530    -0.3460    -0.0350 ha         1 Y0X       0.182000
     73 HBS          3.7350    -1.2320     0.7710 ha         1 Y0X       0.142000
     74 NBC          5.6290     0.2420     0.0840 nf         1 Y0X      -0.222900
     75 NAC          9.6590    -2.7610    -0.5090 nv         1 Y0X      -0.857200
     76 OAK          7.2550    -1.7250    -0.2980 oh         1 Y0X      -0.515600
     77 OAG        -11.4310    -3.3960     1.5280 o          1 Y0X      -0.709700
     78 OAH        -11.2240    -3.6180    -0.9140 o          1 Y0X      -0.709700
     79 OAI        -12.3660     3.4080    -1.1580 o          1 Y0X      -0.710033
     80 OAJ        -12.7540     3.0400     1.2380 o          1 Y0X      -0.710033
     81 OAL         -7.3310     1.7970    -0.0060 oh         1 Y0X      -0.515600
     82 OAN        -13.2740    -2.6860     0.0640 o          1 Y0X      -0.709700
     83 OAO        -14.0620     1.7850    -0.4260 o          1 Y0X      -0.710033
     84 NAD         -9.7780     2.7470    -0.1750 nv         1 Y0X      -0.857200
@<TRIPOS>BOND
     1     1     2 1   
     2     1     3 1   
     3     1     4 1   
     4     1    18 1   
     5     5    26 1   
     6     5    50 1   
     7     5    51 1   
     8     5    52 1   
     9     6    27 1   
    10     6    53 1   
    11     6    54 1   
    12     6    55 1   
    13     7    47 1   
    14     8    47 1   
    15     9    47 1   
    16    10    12 ar  
    17    10    30 ar  
    18    10    62 1   
    19    11    13 ar  
    20    11    31 ar  
    21    11    63 1   
    22    12    26 1   
    23    12    36 ar  
    24    13    37 ar  
    25    13    64 1   
    26    14    17 ar  
    27    14    34 ar  
    28    14    65 1   
    29    15    19 ar  
    30    15    35 ar  
    31    15    66 1   
    32    16    18 ar  
    33    16    40 ar  
    34    16    67 1   
    35    17    43 ar  
    36    17    68 1   
    37    18    43 ar  
    38    19    44 ar  
    39    19    69 1   
    40    20    30 ar  
    41    20    38 ar  
    42    20    70 1   
    43    21    31 ar  
    44    21    39 ar  
    45    21    71 1   
    46    22    41 ar  
    47    22    42 ar  
    48    22    72 1   
    49    23    25 2   
    50    23    35 1   
    51    24    36 1   
    52    24    74 2   
    53    25    37 1   
    54    27    39 1   
    55    28    40 ar  
    56    28    45 ar  
    57    28    75 1   
    58    29    41 ar  
    59    29    46 ar  
    60    29    84 1   
    61    30    31 1   
    62    32    34 ar  
    63    32    45 ar  
    64    32    76 1   
    65    33    35 ar  
    66    33    46 ar  
    67    33    81 1   
    68    34    74 1   
    69    36    38 ar  
    70    37    39 ar  
    71    38    73 1   
    72    40    47 1   
    73    41    49 1   
    74    42    44 ar  
    75    42    48 1   
    76    43    45 ar  
    77    44    46 ar  
    78    48    77 1   
    79    48    78 1   
    80    48    82 1   
    81    49    79 1   
    82    49    80 1   
    83    49    83 1   
    84    56    75 1   
    85    57    75 1   
    86    58    84 1   
    87    59    84 1   
    88    60    76 1   
    89    61    81 1   
@<TRIPOS>SUBSTRUCTURE
     1 Y0X         1 TEMP              0 ****  ****    0 ROOT
