@<TRIPOS>MOLECULE
Y0X
   84    89     1     0     0
SMALL
No Charge or Current Charge


@<TRIPOS>ATOM
      1 S           11.9640     2.8070    -0.9120 s6         1 Y0X       1.274100
      2 O1          11.3670     3.6950     0.0960 o          1 Y0X      -0.709700
      3 O2          11.4830     2.9910    -2.2880 o          1 Y0X      -0.709700
      4 O4          13.4050     2.5590    -0.7690 o          1 Y0X      -0.709700
      5 CAA          2.4640     3.9160    -0.4650 c3         1 Y0X       0.146900
      6 CAB         -2.4640    -3.8800    -0.7310 c3         1 Y0X       0.146900
      7 OAE         13.0230    -3.0650    -0.6260 o          1 Y0X      -0.710033
      8 OAF         12.1190    -3.2390     1.6880 o          1 Y0X      -0.710033
      9 OAM         13.9440    -1.6230     1.1770 o          1 Y0X      -0.710033
     10 CAP          1.3090     1.3390     0.2120 ca         1 Y0X      -0.201000
     11 CAQ         -1.6180     0.8940     0.9670 ca         1 Y0X      -0.141500
     12 CAR          2.7090     1.5450     0.2110 ca         1 Y0X       0.157600
     13 CAS         -3.0080     0.7010     0.9700 ca         1 Y0X      -0.089500
     14 CAT          7.5130     1.7800    -0.8410 ca         1 Y0X      -0.063500
     15 CAU         -7.5170    -1.7200    -0.9020 ca         1 Y0X      -0.063500
     16 CAV         12.0650     0.1310    -0.1010 ca         1 Y0X       0.128500
     17 CAW          8.8950     1.9830    -0.8280 ca         1 Y0X      -0.134000
     18 CAX         11.2010     1.1760    -0.4660 ca         1 Y0X      -0.332500
     19 CAY         -8.8990    -1.9160    -0.9130 ca         1 Y0X      -0.134000
     20 CAZ          1.6340    -0.9710     0.8810 ca         1 Y0X      -0.141500
     21 CBA         -1.3000    -1.3600     0.1240 ca         1 Y0X      -0.201000
     22 CBB        -12.0640    -0.1030    -0.0770 ca         1 Y0X       0.128500
     23 NBD         -5.5860    -0.3250    -0.4800 ne         1 Y0X      -0.222900
     24 NBE          4.9750     0.6410     0.5630 ne         1 Y0X      -0.229900
     25 NBF         -4.9680    -0.6910     0.5630 nf         1 Y0X      -0.229900
     26 OBG          3.2630     2.7740    -0.1100 os         1 Y0X      -0.306600
     27 OBH         -3.2590    -2.7680    -0.2840 os         1 Y0X      -0.306600
     28 CBI         10.2000    -1.3770     0.1960 ca         1 Y0X       0.471000
     29 CBJ        -10.1890     1.3300     0.4430 ca         1 Y0X       0.471000
     30 CBK          0.7480     0.0810     0.5450 cp         1 Y0X      -0.002500
     31 CBL         -0.7360    -0.1290     0.5440 cp         1 Y0X      -0.002500
     32 CBM          7.8580    -0.5180    -0.1420 ca         1 Y0X       0.241600
     33 CBN         -7.8520     0.5140    -0.0190 ca         1 Y0X       0.241600
     34 CBO          6.9890     0.5350    -0.4930 ca         1 Y0X      -0.093600
     35 CBP         -6.9860    -0.5090    -0.4580 ca         1 Y0X      -0.093600
     36 CBQ          3.5720     0.4730     0.5460 ca         1 Y0X       0.087400
     37 CBR         -3.5580    -0.5220     0.5440 ca         1 Y0X       0.087400
     38 CBS          3.0250    -0.7780     0.8840 ca         1 Y0X      -0.089500
     39 CBT         -2.7000    -1.5660     0.1220 ca         1 Y0X       0.157600
     40 CBU         11.5770    -1.1340     0.2460 ca         1 Y0X      -0.383000
     41 CBV        -11.5710     1.1260     0.3770 ca         1 Y0X      -0.383000
     42 CBW        -11.2030    -1.1270    -0.5000 ca         1 Y0X      -0.332500
     43 CBX          9.7980     0.9480    -0.4780 ca         1 Y0X       0.160500
     44 CBY         -9.7990    -0.9110    -0.4770 ca         1 Y0X       0.160500
     45 CBZ          9.2810    -0.3380    -0.1370 ca         1 Y0X      -0.187500
     46 CCA         -9.2750     0.3310    -0.0080 ca         1 Y0X      -0.187500
     47 SCB         12.8170    -2.4240     0.6810 s6         1 Y0X       1.277600
     48 SCC        -11.9720    -2.7140    -1.0760 s6         1 Y0X       1.274100
     49 SCD        -12.8060     2.3760     0.9290 s6         1 Y0X       1.277600
     50 HAA          3.1090     4.7780    -0.6770 h1         1 Y0X       0.034867
     51 HAAA         1.8660     3.7090    -1.3610 h1         1 Y0X       0.034867
     52 HAAB         1.7890     4.1900     0.3560 h1         1 Y0X       0.034867
     53 HAB         -1.8750    -3.6070    -1.6150 h1         1 Y0X       0.034867
     54 HABA        -1.7810    -4.2140     0.0610 h1         1 Y0X       0.034867
     55 HABB        -3.1110    -4.7240    -1.0000 h1         1 Y0X       0.034867
     56 HNAC        10.3850    -3.1930     1.0500 hn         1 Y0X       0.496000
     57 HNAA         8.7590    -2.7270     0.6270 hn         1 Y0X       0.496000
     58 HNAD       -10.3950     3.2850     0.8900 hn         1 Y0X       0.496000
     59 HNAB        -8.7530     2.7070     0.7960 hn         1 Y0X       0.496000
     60 HOAK         6.2800    -1.4980     0.1480 ho         1 Y0X       0.487500
     61 HOAL        -6.2740     1.4900     0.2850 ho         1 Y0X       0.487500
     62 HAP          0.6360     2.1460    -0.0580 ha         1 Y0X       0.114500
     63 HAQ         -1.2190     1.8450     1.3120 ha         1 Y0X       0.109000
     64 HAS         -3.6620     1.5020     1.3060 ha         1 Y0X       0.124000
     65 HAT          6.8480     2.5960    -1.1150 ha         1 Y0X       0.118500
     66 HAU         -6.8550    -2.5130    -1.2460 ha         1 Y0X       0.118500
     67 HAV         13.1400     0.2970    -0.0940 ha         1 Y0X       0.164000
     68 HAW          9.2360     2.9740    -1.0990 ha         1 Y0X       0.148000
     69 HAY         -9.2440    -2.8760    -1.2750 ha         1 Y0X       0.148000
     70 HAZ          1.2390    -1.9450     1.1580 ha         1 Y0X       0.109000
     71 HBA         -0.6300    -2.1440    -0.2120 ha         1 Y0X       0.114500
     72 HBB        -13.1400    -0.2630    -0.0870 ha         1 Y0X       0.164000
     73 HBS          3.6810    -1.6010     1.1530 ha         1 Y0X       0.124000
     74 NBC          5.5810     0.3530    -0.5110 nf         1 Y0X      -0.222900
     75 NAC          9.7600    -2.6310     0.4680 nv         1 Y0X      -1.106000
     76 OAK          7.2430    -1.6890     0.2090 oh         1 Y0X      -0.554600
     77 OAG        -11.3750    -3.6840    -0.1470 o          1 Y0X      -0.709700
     78 OAH        -11.4950    -2.7850    -2.4640 o          1 Y0X      -0.709700
     79 OAI        -12.1760     3.6560     0.5680 o          1 Y0X      -0.710033
     80 OAJ        -12.8750     2.0840     2.3670 o          1 Y0X      -0.710033
     81 OAL         -7.2360     1.6740     0.3650 oh         1 Y0X      -0.554600
     82 OAN        -13.4120    -2.4750    -0.9080 o          1 Y0X      -0.709700
     83 OAO        -13.9960     2.0080     0.1500 o          1 Y0X      -0.710033
     84 NAD         -9.7380     2.5040     0.9520 nv         1 Y0X      -1.106000
@<TRIPOS>BOND
     1     1     2 1   
     2     1     3 1   
     3     1     4 1   
     4     1    18 1   
     5     5    26 1   
     6     5    50 1   
     7     5    51 1   
     8     5    52 1   
     9     6    27 1   
    10     6    53 1   
    11     6    54 1   
    12     6    55 1   
    13     7    47 1   
    14     8    47 1   
    15     9    47 1   
    16    10    12 ar  
    17    10    30 ar  
    18    10    62 1   
    19    11    13 ar  
    20    11    31 ar  
    21    11    63 1   
    22    12    26 1   
    23    12    36 ar  
    24    13    37 ar  
    25    13    64 1   
    26    14    17 ar  
    27    14    34 ar  
    28    14    65 1   
    29    15    19 ar  
    30    15    35 ar  
    31    15    66 1   
    32    16    18 ar  
    33    16    40 ar  
    34    16    67 1   
    35    17    43 ar  
    36    17    68 1   
    37    18    43 ar  
    38    19    44 ar  
    39    19    69 1   
    40    20    30 ar  
    41    20    38 ar  
    42    20    70 1   
    43    21    31 ar  
    44    21    39 ar  
    45    21    71 1   
    46    22    41 ar  
    47    22    42 ar  
    48    22    72 1   
    49    23    25 2   
    50    23    35 1   
    51    24    36 1   
    52    24    74 2   
    53    25    37 1   
    54    27    39 1   
    55    28    40 ar  
    56    28    45 ar  
    57    28    75 1   
    58    29    41 ar  
    59    29    46 ar  
    60    29    84 1   
    61    30    31 1   
    62    32    34 ar  
    63    32    45 ar  
    64    32    76 1   
    65    33    35 ar  
    66    33    46 ar  
    67    33    81 1   
    68    34    74 1   
    69    36    38 ar  
    70    37    39 ar  
    71    38    73 1   
    72    40    47 1   
    73    41    49 1   
    74    42    44 ar  
    75    42    48 1   
    76    43    45 ar  
    77    44    46 ar  
    78    48    77 1   
    79    48    78 1   
    80    48    82 1   
    81    49    79 1   
    82    49    80 1   
    83    49    83 1   
    84    56    75 1   
    85    57    75 1   
    86    58    84 1   
    87    59    84 1   
    88    60    76 1   
    89    61    81 1   
@<TRIPOS>SUBSTRUCTURE
     1 Y0X         1 TEMP              0 ****  ****    0 ROOT
