@<TRIPOS>MOLECULE
Y0Y
   43    45     1     0     0
SMALL
No Charge or Current Charge


@<TRIPOS>ATOM
      1 N1         -17.8940    15.7890    27.0980 n          1 Y0Y      -0.428800
      2 C4         -15.4770    18.6820    27.0120 ca         1 Y0Y      -0.065000
      3 C5         -17.3330    16.9890    27.5990 c          1 Y0Y       0.655100
      4 C6         -19.1690    15.2790    27.6820 c6         1 Y0Y       0.087000
      5 C7         -19.4980    13.8030    27.3630 c6         1 Y0Y       0.088500
      6 C8         -20.0260    12.3590    25.3410 c          1 Y0Y       0.549600
      7 C10        -22.2480    11.1160    25.2550 cc         1 Y0Y      -0.109000
      8 C13        -17.9810    13.8070    25.4440 c6         1 Y0Y       0.088500
      9 C15        -14.4390    18.8830    26.0810 ca         1 Y0Y      -0.089500
     10 N          -16.2810    17.5170    26.8550 ns         1 Y0Y      -0.159000
     11 C          -11.9250    22.3740    26.4300 c3         1 Y0Y       0.148900
     12 C1         -13.7980    20.9580    27.1930 ca         1 Y0Y       0.128100
     13 C11        -23.5540    11.3620    25.7190 cc         1 Y0Y      -0.199000
     14 C12        -23.5140    12.5610    26.3750 cd         1 Y0Y       0.140900
     15 C14        -17.5610    15.2710    25.7340 c6         1 Y0Y       0.087000
     16 C16        -13.6020    20.0100    26.1670 ca         1 Y0Y      -0.154000
     17 C2         -14.8320    20.7630    28.1200 ca         1 Y0Y      -0.154000
     18 C3         -15.6690    19.6370    28.0350 ca         1 Y0Y      -0.089500
     19 C9         -21.4820    12.1750    25.6700 cd         1 Y0Y       0.054500
     20 N2         -19.3430    13.4600    25.9230 n          1 Y0Y      -0.408800
     21 O1         -17.7610    17.5020    28.6250 o          1 Y0Y      -0.616100
     22 O2         -19.4460    11.6100    24.5610 o          1 Y0Y      -0.586100
     23 O3         -22.2490    13.1060    26.3480 os         1 Y0Y      -0.231000
     24 H7         -19.1500    15.3950    28.7750 h1         1 Y0Y       0.059450
     25 H6         -19.9910    15.9060    27.3070 h1         1 Y0Y       0.059450
     26 H9         -18.8010    13.1720    27.9340 h1         1 Y0Y       0.063200
     27 H8         -20.4940    13.5710    27.7520 h1         1 Y0Y       0.063200
     28 H10        -21.9220    10.2530    24.6800 ha         1 Y0Y       0.156000
     29 H13        -17.2610    13.1320    25.9280 h1         1 Y0Y       0.063200
     30 H14        -17.9070    13.6330    24.3610 h1         1 Y0Y       0.063200
     31 H17        -14.2770    18.1600    25.2840 ha         1 Y0Y       0.120000
     32 H5         -16.0410    16.9680    26.0420 hn         1 Y0Y       0.146000
     33 H2         -11.4330    23.3110    26.7180 h1         1 Y0Y       0.040033
     34 H          -11.1730    21.5740    26.4540 h1         1 Y0Y       0.040033
     35 H1         -12.2900    22.4840    25.4000 h1         1 Y0Y       0.040033
     36 H11        -24.4180    10.7210    25.5740 ha         1 Y0Y       0.147000
     37 H12        -24.2920    13.1210    26.8770 h4         1 Y0Y       0.056100
     38 H16        -16.4790    15.3420    25.5550 h1         1 Y0Y       0.059450
     39 H15        -18.0540    15.9210    24.9970 h1         1 Y0Y       0.059450
     40 H18        -12.8120    20.1290    25.4310 ha         1 Y0Y       0.123500
     41 H3         -14.9870    21.4920    28.9110 ha         1 Y0Y       0.123500
     42 H4         -16.4590    19.5290    28.7720 ha         1 Y0Y       0.120000
     43 O          -13.0100    22.0830    27.3290 os         1 Y0Y      -0.340100
@<TRIPOS>BOND
     1     1     3 1   
     2     1     4 1   
     3     1    15 1   
     4     2     9 ar  
     5     2    10 1   
     6     2    18 ar  
     7     3    10 1   
     8     3    21 2   
     9     4     5 1   
    10     4    24 1   
    11     4    25 1   
    12     5    20 1   
    13     5    26 1   
    14     5    27 1   
    15     6    19 1   
    16     6    20 1   
    17     6    22 2   
    18     7    13 1   
    19     7    19 2   
    20     7    28 1   
    21     8    15 1   
    22     8    20 1   
    23     8    29 1   
    24     8    30 1   
    25     9    16 ar  
    26     9    31 1   
    27    10    32 1   
    28    11    33 1   
    29    11    34 1   
    30    11    35 1   
    31    11    43 1   
    32    12    16 ar  
    33    12    17 ar  
    34    12    43 1   
    35    13    14 2   
    36    13    36 1   
    37    14    23 1   
    38    14    37 1   
    39    15    38 1   
    40    15    39 1   
    41    16    40 1   
    42    17    18 ar  
    43    17    41 1   
    44    18    42 1   
    45    19    23 1   
@<TRIPOS>SUBSTRUCTURE
     1 Y0Y         1 TEMP              0 ****  ****    0 ROOT
