@<TRIPOS>MOLECULE
Y0Y
   43    45     1     0     0
SMALL
abcg2


@<TRIPOS>ATOM
      1 N1         -18.0560    15.9530    26.5310 n          1 Y0Y      -0.428800
      2 C4         -15.5980    18.6390    26.5970 ca         1 Y0Y      -0.065000
      3 C5         -17.3720    17.0220    27.0410 c          1 Y0Y       0.655100
      4 C6         -19.0500    15.3010    27.3650 c6         1 Y0Y       0.087000
      5 C7         -19.0470    13.8090    27.0850 c6         1 Y0Y       0.088500
      6 C8         -20.1550    12.6900    25.1310 c          1 Y0Y       0.549600
      7 C10        -22.0520    11.1210    25.8160 cc         1 Y0Y      -0.109000
      8 C13        -18.2600    14.1860    24.8430 c6         1 Y0Y       0.088500
      9 C15        -14.2200    18.5470    26.4700 ca         1 Y0Y      -0.089500
     10 N          -16.4070    17.5520    26.2180 ns         1 Y0Y      -0.159000
     11 C          -11.8240    21.8580    27.4500 c3         1 Y0Y       0.148900
     12 C1         -13.9410    20.8110    27.2390 ca         1 Y0Y       0.128100
     13 C11        -23.1220    11.2390    26.7440 cc         1 Y0Y      -0.199000
     14 C12        -22.9720    12.4500    27.3330 cd         1 Y0Y       0.140900
     15 C14        -18.2360    15.6830    25.1140 c6         1 Y0Y       0.087000
     16 C16        -13.3900    19.6210    26.7740 ca         1 Y0Y      -0.154000
     17 C2         -15.3280    20.9050    27.3730 ca         1 Y0Y      -0.154000
     18 C3         -16.1460    19.8400    27.0480 ca         1 Y0Y      -0.089500
     19 C9         -21.3240    12.2640    25.9250 cd         1 Y0Y       0.054500
     20 N2         -19.2710    13.5580    25.6720 n          1 Y0Y      -0.408800
     21 O1         -17.5870    17.4670    28.1580 o          1 Y0Y      -0.616100
     22 O2         -20.0480    12.2530    23.9920 o          1 Y0Y      -0.586100
     23 O3         -21.8890    13.0780    26.8460 os         1 Y0Y      -0.231000
     24 H7         -18.8180    15.4680    28.4130 h1         1 Y0Y       0.059450
     25 H6         -20.0490    15.7090    27.1700 h1         1 Y0Y       0.059450
     26 H9         -18.0690    13.3960    27.3530 h1         1 Y0Y       0.063200
     27 H8         -19.7820    13.3120    27.7060 h1         1 Y0Y       0.063200
     28 H10        -21.8450    10.2930    25.1580 ha         1 Y0Y       0.156000
     29 H13        -17.2780    13.7530    25.0600 h1         1 Y0Y       0.063200
     30 H14        -18.4790    14.0130    23.7930 h1         1 Y0Y       0.063200
     31 H17        -13.7730    17.6230    26.1220 ha         1 Y0Y       0.120000
     32 H5         -16.0070    16.9540    25.5130 hn         1 Y0Y       0.146000
     33 H2         -11.4510    22.8300    27.7650 h1         1 Y0Y       0.040033
     34 H          -11.3850    21.0900    28.0930 h1         1 Y0Y       0.040033
     35 H1         -11.5030    21.6770    26.4200 h1         1 Y0Y       0.040033
     36 H11        -23.9030    10.5220    26.9410 ha         1 Y0Y       0.147000
     37 H12        -23.5400    12.9790    28.0820 h4         1 Y0Y       0.056100
     38 H16        -17.4440    16.1230    24.5140 h1         1 Y0Y       0.059450
     39 H15        -19.1790    16.1260    24.7720 h1         1 Y0Y       0.059450
     40 H18        -12.3230    19.5000    26.6490 ha         1 Y0Y       0.123500
     41 H3         -15.7650    21.8320    27.7230 ha         1 Y0Y       0.123500
     42 H4         -17.2170    19.9550    27.1340 ha         1 Y0Y       0.120000
     43 O          -13.2300    21.9080    27.5670 os         1 Y0Y      -0.340100
@<TRIPOS>BOND
     1     1     3 1   
     2     1     4 1   
     3     1    15 1   
     4     2     9 ar  
     5     2    10 1   
     6     2    18 ar  
     7     3    10 1   
     8     3    21 2   
     9     4     5 1   
    10     4    24 1   
    11     4    25 1   
    12     5    20 1   
    13     5    26 1   
    14     5    27 1   
    15     6    19 1   
    16     6    20 1   
    17     6    22 2   
    18     7    13 1   
    19     7    19 2   
    20     7    28 1   
    21     8    15 1   
    22     8    20 1   
    23     8    29 1   
    24     8    30 1   
    25     9    16 ar  
    26     9    31 1   
    27    10    32 1   
    28    11    33 1   
    29    11    34 1   
    30    11    35 1   
    31    11    43 1   
    32    12    16 ar  
    33    12    17 ar  
    34    12    43 1   
    35    13    14 2   
    36    13    36 1   
    37    14    23 1   
    38    14    37 1   
    39    15    38 1   
    40    15    39 1   
    41    16    40 1   
    42    17    18 ar  
    43    17    41 1   
    44    18    42 1   
    45    19    23 1   
@<TRIPOS>SUBSTRUCTURE
     1 Y0Y         1 TEMP              0 ****  ****    0 ROOT
