@<TRIPOS>MOLECULE
Y0Z
  118   125     1     0     0
SMALL
abcg2


@<TRIPOS>ATOM
      1 C4          -4.6980    61.1080    83.9380 ca         1 Y0Z      -0.020000
      2 C14         -7.0570    52.8200    84.6990 ca         1 Y0Z      -0.122000
      3 C5          -5.3320    60.3320    82.9720 ca         1 Y0Z      -0.052000
      4 C6          -5.6010    60.8530    81.7180 ca         1 Y0Z      -0.064000
      5 C11         -6.0040    55.6670    82.4240 c3         1 Y0Z      -0.031100
      6 C7          -5.1960    62.1350    81.3720 ca         1 Y0Z      -0.088300
      7 C8          -5.4800    62.6800    80.0040 c3         1 Y0Z      -0.037800
      8 C9          -5.0280    57.9570    82.6890 c          1 Y0Z       0.571900
      9 C10         -5.1130    56.5730    83.2870 c3         1 Y0Z      -0.141400
     10 C12         -6.1340    54.2930    83.0210 ca         1 Y0Z      -0.075300
     11 C13         -6.9520    54.0780    84.1300 ca         1 Y0Z      -0.077000
     12 N1          -5.6470    59.0000    83.3450 n          1 Y0Z       0.005200
     13 N2          -4.3500    49.8570    83.2720 ns         1 Y0Z      -0.148000
     14 C3          -4.2870    62.3920    83.5940 ca         1 Y0Z      -0.100000
     15 N3          -5.7870    59.4970    86.9320 ns         1 Y0Z      -0.513600
     16 C1          -4.0480    64.2900    81.9840 c3         1 Y0Z      -0.049800
     17 C15         -6.3400    51.7530    84.1750 ca         1 Y0Z      -0.097000
     18 C16         -5.5190    51.9490    83.0680 ca         1 Y0Z      -0.164600
     19 C17         -4.7610    50.8340    82.4220 c          1 Y0Z       0.623700
     20 C18         -3.6610    48.6750    82.9770 ca         1 Y0Z      -0.012000
     21 C19         -3.0740    48.0020    84.0510 ca         1 Y0Z      -0.150000
     22 C2          -4.5110    62.9040    82.3230 ca         1 Y0Z      -0.052300
     23 C20         -2.3920    46.8130    83.8530 ca         1 Y0Z      -0.085500
     24 C21         -2.2800    46.2720    82.5790 ca         1 Y0Z      -0.144000
     25 C22         -2.8680    46.9370    81.5130 ca         1 Y0Z      -0.085500
     26 C23         -3.5570    48.1280    81.6970 ca         1 Y0Z      -0.150000
     27 C24         -5.4320    53.2170    82.4950 ca         1 Y0Z      -0.057000
     28 C25         -6.1260    58.9090    84.6690 cc         1 Y0Z      -0.373600
     29 C26         -5.4710    59.6520    85.6160 cd         1 Y0Z       0.208600
     30 C27         -6.8050    58.6830    87.3770 c          1 Y0Z       0.629000
     31 C28         -7.3080    58.1830    85.0100 c          1 Y0Z       0.623600
     32 C29         -3.6830    61.2270    86.2080 c3         1 Y0Z       0.052600
     33 C30         -4.3830    62.3120    87.0670 c3         1 Y0Z       0.160300
     34 C31         -3.4070    63.4690    87.3330 c3         1 Y0Z       0.123300
     35 C32         -4.0010    64.5390    88.2610 c3         1 Y0Z       0.167300
     36 C33         -3.0470    65.7170    88.4090 c3         1 Y0Z       0.211600
     37 C34         -6.4840    70.7060    89.0120 c3         1 Y0Z       0.214600
     38 C35         -7.7940    71.4530    89.2150 c5         1 Y0Z       0.107300
     39 C36         -8.1800    73.3920    87.9890 c5         1 Y0Z       0.267300
     40 C37         -6.0320    74.1000    86.8780 cc         1 Y0Z       0.438700
     41 C38         -6.4310    76.1250    86.4390 ca         1 Y0Z      -0.094600
     42 C39         -6.4600    77.4750    86.0430 ca         1 Y0Z       0.440900
     43 C40         -8.5850    77.5840    86.9170 ca         1 Y0Z       0.159900
     44 C41         -7.5690    75.6440    87.0660 ca         1 Y0Z       0.121500
     45 C42         -8.5600    72.1900    87.1120 c5         1 Y0Z       0.132300
     46 C43         -8.8670    71.1400    88.1680 c5         1 Y0Z       0.147300
     47 N10         -8.6770    76.3320    87.3300 nb         1 Y0Z      -0.204000
     48 N4          -7.5320    58.0960    86.3810 ns         1 Y0Z      -0.474500
     49 N5          -4.5500    60.5740    85.2390 na         1 Y0Z      -0.057000
     50 N6          -7.3010    74.3330    87.3400 na         1 Y0Z      -0.281300
     51 N7          -5.4790    75.1430    86.3350 nd         1 Y0Z      -0.577100
     52 N8          -5.4370    78.0700    85.4280 nv         1 Y0Z      -1.078900
     53 N9          -7.5670    78.1800    86.3020 nb         1 Y0Z      -0.322000
     54 O1          -4.4600    58.1360    81.6300 o          1 Y0Z      -0.596100
     55 O10         -2.1300    68.6090    88.7920 o          1 Y0Z      -0.839000
     56 O11         -4.5540    68.4670    88.1840 os         1 Y0Z      -0.725800
     57 O12         -6.6580    68.5470    86.8300 o          1 Y0Z      -0.836500
     58 O13         -6.4930    66.8970    88.8500 o          1 Y0Z      -0.836500
     59 O14         -6.7010    69.3350    89.2760 os         1 Y0Z      -0.585400
     60 O15         -7.5400    72.8570    89.1140 os         1 Y0Z      -0.461000
     61 O16         -9.6350    72.4280    86.2600 oh         1 Y0Z      -0.682000
     62 O17        -10.1640    71.3780    88.6530 oh         1 Y0Z      -0.721000
     63 O2          -4.5360    50.8350    81.2250 o          1 Y0Z      -0.580100
     64 O3          -7.0400    58.5350    88.5560 o          1 Y0Z      -0.555000
     65 O4          -8.0640    57.6300    84.2270 o          1 Y0Z      -0.564000
     66 O5          -5.5550    62.7100    86.4180 oh         1 Y0Z      -0.758000
     67 O6          -2.2660    62.8910    87.9310 oh         1 Y0Z      -0.680000
     68 O7          -5.2380    64.9340    87.7190 oh         1 Y0Z      -0.848000
     69 O8          -3.4910    66.5370    89.4720 os         1 Y0Z      -0.595400
     70 O9          -3.9320    68.6660    90.6900 o          1 Y0Z      -0.839000
     71 P1          -3.4350    68.1700    89.3730 p5         1 Y0Z       1.458800
     72 P2          -6.1710    68.2220    88.2040 p5         1 Y0Z       1.480800
     73 H1          -7.7080    52.6630    85.5490 ha         1 Y0Z       0.115000
     74 H2          -6.1250    60.2420    80.9950 ha         1 Y0Z       0.126000
     75 H3          -6.9930    56.1190    82.3300 hc         1 Y0Z       0.071200
     76 H4          -5.5830    55.5960    81.4200 hc         1 Y0Z       0.071200
     77 H5          -6.0970    63.5800    80.0510 hc         1 Y0Z       0.037367
     78 H6          -4.5620    62.9570    79.4820 hc         1 Y0Z       0.037367
     79 H7          -6.0040    61.9500    79.3890 hc         1 Y0Z       0.037367
     80 H8          -4.0970    56.1720    83.2930 hc         1 Y0Z       0.061200
     81 H9          -5.4550    56.5690    84.3190 hc         1 Y0Z       0.061200
     82 H10         -7.5210    54.9040    84.5410 ha         1 Y0Z       0.135000
     83 H11         -4.4550    50.0460    84.2570 hn         1 Y0Z       0.155000
     84 H12         -3.7900    63.0240    84.3170 ha         1 Y0Z       0.136000
     85 H13         -5.3140    60.0250    87.6520 hn         1 Y0Z       0.479000
     86 H14         -4.8840    64.9320    81.6980 hc         1 Y0Z       0.046367
     87 H15         -3.5420    64.7590    82.8260 hc         1 Y0Z       0.046367
     88 H16         -3.3570    64.2830    81.1390 hc         1 Y0Z       0.046367
     89 H17         -6.4600    50.7730    84.6200 ha         1 Y0Z       0.106000
     90 H18         -3.1530    48.4130    85.0510 ha         1 Y0Z       0.127000
     91 H19         -1.9460    46.3110    84.7010 ha         1 Y0Z       0.109000
     92 H20         -1.7460    45.3450    82.4210 ha         1 Y0Z       0.109000
     93 H21         -2.7950    46.5260    80.5140 ha         1 Y0Z       0.109000
     94 H22         -4.0060    48.6140    80.8460 ha         1 Y0Z       0.127000
     95 H23         -4.8000    53.3680    81.6280 ha         1 Y0Z       0.134000
     96 H24         -3.2370    60.4600    86.8430 h1         1 Y0Z       0.061200
     97 H25         -2.8530    61.6510    85.6450 h1         1 Y0Z       0.061200
     98 H26         -4.6140    61.8800    88.0580 h1         1 Y0Z       0.030700
     99 H27         -3.1580    63.9360    86.3680 h1         1 Y0Z       0.039700
    100 H28         -4.1320    64.0750    89.2520 h1         1 Y0Z       0.042700
    101 H29         -2.0370    65.3590    88.6270 h1         1 Y0Z       0.014200
    102 H30         -3.0050    66.2550    87.4550 h1         1 Y0Z       0.014200
    103 H31         -5.7330    71.0940    89.7040 h1         1 Y0Z       0.042200
    104 H32         -6.1080    70.8780    87.9980 h1         1 Y0Z       0.042200
    105 H33         -8.1680    71.2380    90.2220 h1         1 Y0Z       0.082700
    106 H34         -9.0780    73.9550    88.2630 h2         1 Y0Z       0.103700
    107 H35         -5.5610    73.1330    86.9760 h5         1 Y0Z       0.095800
    108 H36         -9.4510    78.2130    87.0990 h5         1 Y0Z       0.032100
    109 H37         -7.6730    71.8550    86.5570 h1         1 Y0Z       0.073700
    110 H38         -8.7610    70.1240    87.7720 h1         1 Y0Z       0.114700
    111 H39         -8.3200    57.5340    86.6780 hn         1 Y0Z       0.335500
    112 H40         -5.5000    79.0360    85.1570 hn         1 Y0Z       0.499500
    113 H41         -4.5940    77.5670    85.2120 hn         1 Y0Z       0.499500
    114 H43         -9.3160    72.9170    85.4940 ho         1 Y0Z       0.497000
    115 H44        -10.3560    70.7270    89.3350 ho         1 Y0Z       0.505000
    116 H45         -5.7950    63.5680    86.8180 ho         1 Y0Z       0.586000
    117 H46         -1.4750    63.2970    87.5670 ho         1 Y0Z       0.445000
    118 H47         -5.6830    65.6580    88.2440 ho         1 Y0Z       0.631000
@<TRIPOS>BOND
     1     1     3 ar  
     2     1    14 ar  
     3     1    49 1   
     4     2    11 ar  
     5     2    17 ar  
     6     2    73 1   
     7     3     4 ar  
     8     3    12 1   
     9     4     6 ar  
    10     4    74 1   
    11     5     9 1   
    12     5    10 1   
    13     5    75 1   
    14     5    76 1   
    15     6     7 1   
    16     6    22 ar  
    17     7    77 1   
    18     7    78 1   
    19     7    79 1   
    20     8     9 1   
    21     8    12 1   
    22     8    54 2   
    23     9    80 1   
    24     9    81 1   
    25    10    11 ar  
    26    10    27 ar  
    27    11    82 1   
    28    12    28 1   
    29    13    19 1   
    30    13    20 1   
    31    13    83 1   
    32    14    22 ar  
    33    14    84 1   
    34    15    29 1   
    35    15    30 1   
    36    15    85 1   
    37    16    22 1   
    38    16    86 1   
    39    16    87 1   
    40    16    88 1   
    41    17    18 ar  
    42    17    89 1   
    43    18    19 1   
    44    18    27 ar  
    45    19    63 2   
    46    20    21 ar  
    47    20    26 ar  
    48    21    23 ar  
    49    21    90 1   
    50    23    24 ar  
    51    23    91 1   
    52    24    25 ar  
    53    24    92 1   
    54    25    26 ar  
    55    25    93 1   
    56    26    94 1   
    57    27    95 1   
    58    28    29 2   
    59    28    31 1   
    60    29    49 1   
    61    30    48 1   
    62    30    64 2   
    63    31    48 1   
    64    31    65 2   
    65    32    33 1   
    66    32    49 1   
    67    32    96 1   
    68    32    97 1   
    69    33    34 1   
    70    33    66 1   
    71    33    98 1   
    72    34    35 1   
    73    34    67 1   
    74    34    99 1   
    75    35    36 1   
    76    35    68 1   
    77    35   100 1   
    78    36    69 1   
    79    36   101 1   
    80    36   102 1   
    81    37    38 1   
    82    37    59 1   
    83    37   103 1   
    84    37   104 1   
    85    38    46 1   
    86    38    60 1   
    87    38   105 1   
    88    39    45 1   
    89    39    50 1   
    90    39    60 1   
    91    39   106 1   
    92    40    50 1   
    93    40    51 2   
    94    40   107 1   
    95    41    42 ar  
    96    41    44 ar  
    97    41    51 1   
    98    42    52 1   
    99    42    53 ar  
   100    43    47 ar  
   101    43    53 ar  
   102    43   108 1   
   103    44    47 ar  
   104    44    50 1   
   105    45    46 1   
   106    45    61 1   
   107    45   109 1   
   108    46    62 1   
   109    46   110 1   
   110    48   111 1   
   111    52   112 1   
   112    52   113 1   
   113    55    71 1   
   114    56    71 1   
   115    56    72 1   
   116    57    72 1   
   117    58    72 1   
   118    59    72 1   
   119    61   114 1   
   120    62   115 1   
   121    66   116 1   
   122    67   117 1   
   123    68   118 1   
   124    69    71 1   
   125    70    71 1   
@<TRIPOS>SUBSTRUCTURE
     1 Y0Z         1 TEMP              0 ****  ****    0 ROOT
