@<TRIPOS>MOLECULE
Y0Z
  118   125     1     0     0
SMALL
No Charge or Current Charge


@<TRIPOS>ATOM
      1 C4          -3.4950    61.4580    83.0140 ca         1 Y0Z      -0.020000
      2 C14         -8.0130    54.1070    84.5190 ca         1 Y0Z      -0.122000
      3 C5          -3.9410    60.6600    81.9400 ca         1 Y0Z      -0.052000
      4 C6          -3.5820    61.0010    80.6170 ca         1 Y0Z      -0.064000
      5 C11         -6.2640    56.1570    81.8010 c3         1 Y0Z      -0.031100
      6 C7          -2.7060    62.0700    80.3570 ca         1 Y0Z      -0.088300
      7 C8          -2.3250    62.3940    78.9140 c3         1 Y0Z      -0.037800
      8 C9          -4.9660    58.3850    81.5950 c          1 Y0Z       0.571900
      9 C10         -5.2630    57.1360    82.4590 c3         1 Y0Z      -0.141400
     10 C12         -6.6270    55.0110    82.7350 ca         1 Y0Z      -0.075300
     11 C13         -7.6830    55.1590    83.6520 ca         1 Y0Z      -0.077000
     12 N1          -4.9240    59.6660    82.2470 n          1 Y0Z       0.005200
     13 N2          -5.7940    50.4460    84.3790 ns         1 Y0Z      -0.148000
     14 C3          -2.6220    62.5310    82.7440 ca         1 Y0Z      -0.100000
     15 N3          -5.9750    60.7960    85.5580 ns         1 Y0Z      -0.513600
     16 C1          -1.2660    64.0120    81.1990 c3         1 Y0Z      -0.049800
     17 C15         -7.2930    52.9010    84.4790 ca         1 Y0Z      -0.097000
     18 C16         -6.2230    52.7320    83.5640 ca         1 Y0Z      -0.164600
     19 C17         -5.4160    51.4460    83.4890 c          1 Y0Z       0.623700
     20 C18         -5.3070    49.1300    84.6150 ca         1 Y0Z      -0.012000
     21 C19         -5.9240    48.3860    85.6400 ca         1 Y0Z      -0.150000
     22 C2          -2.2140    62.8380    81.4330 ca         1 Y0Z      -0.052300
     23 C20         -5.5020    47.0780    85.9340 ca         1 Y0Z      -0.085500
     24 C21         -4.4540    46.4990    85.2030 ca         1 Y0Z      -0.144000
     25 C22         -3.8310    47.2280    84.1780 ca         1 Y0Z      -0.085500
     26 C23         -4.2540    48.5360    83.8830 ca         1 Y0Z      -0.150000
     27 C24         -5.9030    53.8040    82.6970 ca         1 Y0Z      -0.057000
     28 C25         -5.7310    59.9920    83.3500 cc         1 Y0Z      -0.373600
     29 C26         -5.2110    60.6750    84.4360 cd         1 Y0Z       0.208600
     30 C27         -7.2610    60.3980    85.6900 c          1 Y0Z       0.629000
     31 C28         -7.1510    59.5700    83.4000 c          1 Y0Z       0.623600
     32 C29         -2.8960    61.1470    85.4640 c3         1 Y0Z       0.052600
     33 C30         -3.0120    62.2120    86.6110 c3         1 Y0Z       0.160300
     34 C31         -2.5630    63.6680    86.2460 c3         1 Y0Z       0.123300
     35 C32         -2.7320    64.6810    87.4390 c3         1 Y0Z       0.167300
     36 C33         -2.2910    66.1290    87.0630 c3         1 Y0Z       0.211600
     37 C34         -5.7500    70.5820    89.3360 c3         1 Y0Z       0.214600
     38 C35         -7.0280    70.8250    90.1960 c5         1 Y0Z       0.107300
     39 C36         -8.7610    71.9960    89.0830 c5         1 Y0Z       0.267300
     40 C37         -8.1450    72.8890    86.7710 cc         1 Y0Z       0.438700
     41 C38         -9.1440    74.7960    86.8390 ca         1 Y0Z      -0.094600
     42 C39         -9.6810    76.0770    86.5910 ca         1 Y0Z       0.440900
     43 C40        -10.5870    76.0610    88.6920 ca         1 Y0Z       0.159900
     44 C41         -9.3860    74.2190    88.0610 ca         1 Y0Z       0.121500
     45 C42         -8.8160    70.4880    88.6610 c5         1 Y0Z       0.132300
     46 C43         -8.2320    69.8450    89.9630 c5         1 Y0Z       0.147300
     47 N10        -10.1130    74.8340    89.0150 nb         1 Y0Z      -0.204000
     48 N4          -7.7750    59.8180    84.5810 ns         1 Y0Z      -0.474500
     49 N5          -3.8840    61.1570    84.3440 na         1 Y0Z      -0.057000
     50 N6          -8.7590    73.0060    88.0250 na         1 Y0Z      -0.281300
     51 N7          -8.3650    73.9810    86.0120 nd         1 Y0Z      -0.577100
     52 N8          -9.4970    76.7390    85.4180 nv         1 Y0Z      -1.078900
     53 N9         -10.4050    76.7190    87.5210 nb         1 Y0Z      -0.322000
     54 O1          -4.5890    58.2200    80.4380 o          1 Y0Z      -0.596100
     55 O10         -1.5590    69.0580    87.1110 o          1 Y0Z      -0.839000
     56 O11         -3.9980    68.6770    87.5770 os         1 Y0Z      -0.725800
     57 O12         -6.4530    68.1800    87.6760 o          1 Y0Z      -0.836500
     58 O13         -4.9590    66.7840    89.0120 o          1 Y0Z      -0.836500
     59 O14         -5.2280    69.2750    89.6150 os         1 Y0Z      -0.585400
     60 O15         -7.5610    72.1430    89.8830 os         1 Y0Z      -0.461000
     61 O16        -10.1330    70.0120    88.3070 oh         1 Y0Z      -0.682000
     62 O17         -9.1590    69.8710    91.0760 oh         1 Y0Z      -0.721000
     63 O2          -4.4950    51.3240    82.6880 o          1 Y0Z      -0.580100
     64 O3          -7.8990    60.5570    86.7120 o          1 Y0Z      -0.555000
     65 O4          -7.7510    59.0500    82.4770 o          1 Y0Z      -0.564000
     66 O5          -4.3350    62.2520    87.1630 oh         1 Y0Z      -0.758000
     67 O6          -1.1850    63.6380    85.8160 oh         1 Y0Z      -0.680000
     68 O7          -4.1070    64.6680    87.9180 oh         1 Y0Z      -0.848000
     69 O8          -2.3800    66.9350    88.2400 os         1 Y0Z      -0.595400
     70 O9          -2.3100    69.2040    89.4350 o          1 Y0Z      -0.839000
     71 P1          -2.5240    68.5330    88.1210 p5         1 Y0Z       1.458800
     72 P2          -5.1890    68.1510    88.4630 p5         1 Y0Z       1.480800
     73 H1          -8.8310    54.2260    85.2260 ha         1 Y0Z       0.115000
     74 H2          -3.9970    60.4580    79.7740 ha         1 Y0Z       0.126000
     75 H3          -7.1710    56.6970    81.5050 hc         1 Y0Z       0.071200
     76 H4          -5.8330    55.7670    80.8700 hc         1 Y0Z       0.071200
     77 H5          -2.6420    63.4070    78.6400 hc         1 Y0Z       0.037367
     78 H6          -1.2400    62.3270    78.7680 hc         1 Y0Z       0.037367
     79 H7          -2.7910    61.7020    78.2030 hc         1 Y0Z       0.037367
     80 H8          -4.3140    56.6040    82.5920 hc         1 Y0Z       0.061200
     81 H9          -5.6030    57.4120    83.4620 hc         1 Y0Z       0.061200
     82 H10         -8.2450    56.0890    83.6930 ha         1 Y0Z       0.135000
     83 H11         -6.5670    50.7020    84.9760 hn         1 Y0Z       0.155000
     84 H12         -2.2560    63.1440    83.5550 ha         1 Y0Z       0.136000
     85 H13         -5.5810    61.2660    86.3730 hn         1 Y0Z       0.479000
     86 H14         -1.7380    64.7820    80.5780 hc         1 Y0Z       0.046367
     87 H15         -0.9670    64.4900    82.1400 hc         1 Y0Z       0.046367
     88 H16         -0.3490    63.6850    80.6950 hc         1 Y0Z       0.046367
     89 H17         -7.5810    52.1120    85.1680 ha         1 Y0Z       0.106000
     90 H18         -6.7380    48.8230    86.2150 ha         1 Y0Z       0.127000
     91 H19         -5.9870    46.5150    86.7290 ha         1 Y0Z       0.109000
     92 H20         -4.1260    45.4870    85.4290 ha         1 Y0Z       0.109000
     93 H21         -3.0190    46.7790    83.6090 ha         1 Y0Z       0.109000
     94 H22         -3.7490    49.0670    83.0820 ha         1 Y0Z       0.127000
     95 H23         -5.0850    53.7030    81.9870 ha         1 Y0Z       0.134000
     96 H24         -2.9670    60.1590    85.9330 h1         1 Y0Z       0.061200
     97 H25         -1.8870    61.2000    85.0370 h1         1 Y0Z       0.061200
     98 H26         -2.3260    61.8780    87.4020 h1         1 Y0Z       0.030700
     99 H27         -3.1980    64.0160    85.4210 h1         1 Y0Z       0.039700
    100 H28         -2.0700    64.3440    88.2490 h1         1 Y0Z       0.042700
    101 H29         -1.2570    66.1230    86.6960 h1         1 Y0Z       0.014200
    102 H30         -2.9390    66.5140    86.2640 h1         1 Y0Z       0.014200
    103 H31         -5.0050    71.3430    89.5990 h1         1 Y0Z       0.042200
    104 H32         -5.9820    70.7100    88.2710 h1         1 Y0Z       0.042200
    105 H33         -6.7130    70.8150    91.2480 h1         1 Y0Z       0.082700
    106 H34         -9.6310    72.2150    89.7150 h2         1 Y0Z       0.103700
    107 H35         -7.5680    72.0180    86.4810 h5         1 Y0Z       0.095800
    108 H36        -11.1750    76.5720    89.4530 h5         1 Y0Z       0.032100
    109 H37         -8.1290    70.3020    87.8240 h1         1 Y0Z       0.073700
    110 H38         -7.8880    68.8180    89.7710 h1         1 Y0Z       0.114700
    111 H39         -8.7380    59.5310    84.6390 hn         1 Y0Z       0.335500
    112 H40         -9.6460    77.7440    85.4100 hn         1 Y0Z       0.499500
    113 H41         -8.7810    76.3770    84.7930 hn         1 Y0Z       0.499500
    114 H43        -10.4170    70.4920    87.4960 ho         1 Y0Z       0.497000
    115 H44         -8.7580    69.3430    91.8060 ho         1 Y0Z       0.505000
    116 H45         -4.3820    63.1950    87.5510 ho         1 Y0Z       0.586000
    117 H46         -0.9880    64.4860    85.3620 ho         1 Y0Z       0.445000
    118 H47         -4.2970    65.5650    88.3890 ho         1 Y0Z       0.631000
@<TRIPOS>BOND
     1     1     3 ar  
     2     1    14 ar  
     3     1    49 1   
     4     2    11 ar  
     5     2    17 ar  
     6     2    73 1   
     7     3     4 ar  
     8     3    12 1   
     9     4     6 ar  
    10     4    74 1   
    11     5     9 1   
    12     5    10 1   
    13     5    75 1   
    14     5    76 1   
    15     6     7 1   
    16     6    22 ar  
    17     7    77 1   
    18     7    78 1   
    19     7    79 1   
    20     8     9 1   
    21     8    12 1   
    22     8    54 2   
    23     9    80 1   
    24     9    81 1   
    25    10    11 ar  
    26    10    27 ar  
    27    11    82 1   
    28    12    28 1   
    29    13    19 1   
    30    13    20 1   
    31    13    83 1   
    32    14    22 ar  
    33    14    84 1   
    34    15    29 1   
    35    15    30 1   
    36    15    85 1   
    37    16    22 1   
    38    16    86 1   
    39    16    87 1   
    40    16    88 1   
    41    17    18 ar  
    42    17    89 1   
    43    18    19 1   
    44    18    27 ar  
    45    19    63 2   
    46    20    21 ar  
    47    20    26 ar  
    48    21    23 ar  
    49    21    90 1   
    50    23    24 ar  
    51    23    91 1   
    52    24    25 ar  
    53    24    92 1   
    54    25    26 ar  
    55    25    93 1   
    56    26    94 1   
    57    27    95 1   
    58    28    29 2   
    59    28    31 1   
    60    29    49 1   
    61    30    48 1   
    62    30    64 2   
    63    31    48 1   
    64    31    65 2   
    65    32    33 1   
    66    32    49 1   
    67    32    96 1   
    68    32    97 1   
    69    33    34 1   
    70    33    66 1   
    71    33    98 1   
    72    34    35 1   
    73    34    67 1   
    74    34    99 1   
    75    35    36 1   
    76    35    68 1   
    77    35   100 1   
    78    36    69 1   
    79    36   101 1   
    80    36   102 1   
    81    37    38 1   
    82    37    59 1   
    83    37   103 1   
    84    37   104 1   
    85    38    46 1   
    86    38    60 1   
    87    38   105 1   
    88    39    45 1   
    89    39    50 1   
    90    39    60 1   
    91    39   106 1   
    92    40    50 1   
    93    40    51 2   
    94    40   107 1   
    95    41    42 ar  
    96    41    44 ar  
    97    41    51 1   
    98    42    52 1   
    99    42    53 ar  
   100    43    47 ar  
   101    43    53 ar  
   102    43   108 1   
   103    44    47 ar  
   104    44    50 1   
   105    45    46 1   
   106    45    61 1   
   107    45   109 1   
   108    46    62 1   
   109    46   110 1   
   110    48   111 1   
   111    52   112 1   
   112    52   113 1   
   113    55    71 1   
   114    56    71 1   
   115    56    72 1   
   116    57    72 1   
   117    58    72 1   
   118    59    72 1   
   119    61   114 1   
   120    62   115 1   
   121    66   116 1   
   122    67   117 1   
   123    68   118 1   
   124    69    71 1   
   125    70    71 1   
@<TRIPOS>SUBSTRUCTURE
     1 Y0Z         1 TEMP              0 ****  ****    0 ROOT
