@<TRIPOS>MOLECULE
Y10
   58    59     1     0     0
SMALL
No Charge or Current Charge


@<TRIPOS>ATOM
      1 N           -2.4080    -1.1280    -0.4680 ns         1 Y10      -0.495900
      2 O1           2.5350     2.0560    -0.1120 oh         1 Y10      -0.711000
      3 O2           0.1470     0.7860     0.0450 oh         1 Y10      -0.695000
      4 O3           2.1960    -0.1750    -1.7840 oh         1 Y10      -0.653000
      5 O4          -1.6800    -2.1320     1.4570 o          1 Y10      -0.578100
      6 O5           0.7320    -2.8700     0.0700 os         1 Y10      -0.426000
      7 C01          7.0390     1.3450     0.1100 c3         1 Y10      -0.013800
      8 C04          3.1090     0.7970     0.2680 c3         1 Y10       0.179500
      9 C05          2.2730    -0.3670    -0.3540 c3         1 Y10       0.111300
     10 C06          0.8400    -0.4580     0.2720 c3         1 Y10       0.145300
     11 C07          0.0040    -1.6550    -0.2590 c3         1 Y10       0.064300
     12 C08          7.5410    -0.1070    -0.0920 c3         1 Y10      -0.082767
     13 C09          7.1870     2.1410    -1.2120 c3         1 Y10      -0.082767
     14 C10          7.8910     2.0280     1.2110 c3         1 Y10      -0.082767
     15 C11         -1.4240    -1.6440     0.3600 c          1 Y10       0.572100
     16 C12         -3.7890    -1.0710     0.0300 c5         1 Y10       0.105700
     17 C13         -4.6940    -0.8530    -1.2460 c5         1 Y10      -0.047100
     18 C14         -5.6870     0.1430    -0.7070 ca         1 Y10      -0.089300
     19 C15         -5.2490     0.7490     0.4550 ca         1 Y10      -0.089300
     20 C16         -3.8920     0.2560     0.8830 c5         1 Y10      -0.047100
     21 C17         -6.9280     0.4780    -1.2720 ca         1 Y10      -0.093500
     22 C18         -7.7290     1.4450    -0.6330 ca         1 Y10      -0.110500
     23 C19         -7.2820     2.0630     0.5530 ca         1 Y10      -0.110500
     24 C20         -6.0330     1.7170     1.1040 ca         1 Y10      -0.093500
     25 HN          -2.1110    -0.7380    -1.3550 hn         1 Y10       0.304500
     26 HO1          3.2430     2.7280     0.0290 ho         1 Y10       0.501000
     27 HO2          0.8760     1.4610    -0.0340 ho         1 Y10       0.495000
     28 HO3          2.2020     0.8010    -1.9080 ho         1 Y10       0.435000
     29 H02          5.3780     1.7750     1.5120 ha         1 Y10       0.165000
     30 H03          4.7350     0.3560    -1.1490 ha         1 Y10       0.182000
     31 H04          3.0860     0.6820     1.3630 h1         1 Y10       0.091700
     32 H05          2.7960    -1.3070    -0.1280 h1         1 Y10       0.099700
     33 H06          0.9670    -0.6140     1.3540 h1         1 Y10       0.106700
     34 H07         -0.0970    -1.5610    -1.3490 h1         1 Y10       0.041700
     35 H08          6.9830    -0.6130    -0.8890 hc         1 Y10       0.035922
     36 H08A         8.6030    -0.1200    -0.3650 hc         1 Y10       0.035922
     37 H08B         7.4200    -0.6910     0.8290 hc         1 Y10       0.035922
     38 H09          6.6240     1.6680    -2.0250 hc         1 Y10       0.035922
     39 H09A         6.8140     3.1650    -1.0930 hc         1 Y10       0.035922
     40 H09B         8.2390     2.1960    -1.5200 hc         1 Y10       0.035922
     41 H10          8.9510     2.0550     0.9280 hc         1 Y10       0.035922
     42 H10A         7.5600     3.0600     1.3780 hc         1 Y10       0.035922
     43 H10B         7.8080     1.4870     2.1610 hc         1 Y10       0.035922
     44 H12         -4.1080    -1.9550     0.6020 h1         1 Y10       0.081700
     45 H13         -4.1460    -0.4300    -2.0970 hc         1 Y10       0.060950
     46 H13A        -5.1590    -1.7860    -1.5820 hc         1 Y10       0.060950
     47 H16         -3.8260     0.0580     1.9590 hc         1 Y10       0.060950
     48 H16A        -3.1150     0.9880     0.6320 hc         1 Y10       0.060950
     49 H17         -7.2660     0.0000    -2.1890 ha         1 Y10       0.115000
     50 H18         -8.6940     1.7160    -1.0570 ha         1 Y10       0.112000
     51 H19         -7.9030     2.8100     1.0440 ha         1 Y10       0.112000
     52 H20         -5.6810     2.1920     2.0170 ha         1 Y10       0.115000
     53 H21          0.2180    -3.9980    -1.6230 h1         1 Y10       0.036033
     54 H21A         0.8440    -4.9340    -0.2480 h1         1 Y10       0.036033
     55 H21B        -0.8050    -4.2800    -0.1920 h1         1 Y10       0.036033
     56 C21          0.2200    -4.0760    -0.5280 c3         1 Y10       0.142900
     57 C03          4.5540     0.8120    -0.1740 c2         1 Y10      -0.262200
     58 C02          5.5750     1.3260     0.5360 c2         1 Y10      -0.191200
@<TRIPOS>BOND
     1     1    15 1   
     2     1    16 1   
     3     1    25 1   
     4     2     8 1   
     5     2    26 1   
     6     3    10 1   
     7     3    27 1   
     8     4     9 1   
     9     4    28 1   
    10     5    15 2   
    11     6    11 1   
    12     6    56 1   
    13     7    12 1   
    14     7    13 1   
    15     7    14 1   
    16     7    58 1   
    17     8     9 1   
    18     8    31 1   
    19     8    57 1   
    20     9    10 1   
    21     9    32 1   
    22    10    11 1   
    23    10    33 1   
    24    11    15 1   
    25    11    34 1   
    26    12    35 1   
    27    12    36 1   
    28    12    37 1   
    29    13    38 1   
    30    13    39 1   
    31    13    40 1   
    32    14    41 1   
    33    14    42 1   
    34    14    43 1   
    35    16    17 1   
    36    16    20 1   
    37    16    44 1   
    38    17    18 1   
    39    17    45 1   
    40    17    46 1   
    41    18    19 ar  
    42    18    21 ar  
    43    19    20 1   
    44    19    24 ar  
    45    20    47 1   
    46    20    48 1   
    47    21    22 ar  
    48    21    49 1   
    49    22    23 ar  
    50    22    50 1   
    51    23    24 ar  
    52    23    51 1   
    53    24    52 1   
    54    29    58 1   
    55    30    57 1   
    56    53    56 1   
    57    54    56 1   
    58    55    56 1   
    59    57    58 2   
@<TRIPOS>SUBSTRUCTURE
     1 Y10         1 TEMP              0 ****  ****    0 ROOT
