@<TRIPOS>MOLECULE
Y10
   58    59     1     0     0
SMALL
abcg2


@<TRIPOS>ATOM
      1 N           -2.2600    -0.9990    -0.6120 ns         1 Y10      -0.495900
      2 O1           2.7390     2.1760     0.1560 oh         1 Y10      -0.711000
      3 O2           0.1230     0.8100     0.3710 oh         1 Y10      -0.695000
      4 O3           2.3690     0.0090    -1.5780 oh         1 Y10      -0.653000
      5 O4          -1.5180    -2.0730     1.2320 o          1 Y10      -0.578100
      6 O5           0.7910    -2.6760    -0.2430 os         1 Y10      -0.426000
      7 C01          6.9950     1.2180     0.0800 c3         1 Y10      -0.013800
      8 C04          3.0920     0.8830     0.5820 c3         1 Y10       0.179500
      9 C05          2.3100    -0.2060    -0.1870 c3         1 Y10       0.111300
     10 C06          0.8800    -0.3770     0.3380 c3         1 Y10       0.145300
     11 C07          0.1130    -1.4700    -0.4240 c3         1 Y10       0.064300
     12 C08          7.3740    -0.2140     0.4480 c3         1 Y10      -0.082767
     13 C09          7.4320     1.5080    -1.3620 c3         1 Y10      -0.082767
     14 C10          7.7140     2.1910     1.0220 c3         1 Y10      -0.082767
     15 C11         -1.3040    -1.5480     0.1500 c          1 Y10       0.572100
     16 C12         -3.6190    -0.8220    -0.1640 c5         1 Y10       0.105700
     17 C13         -4.5900    -0.5750    -1.3270 c5         1 Y10      -0.047100
     18 C14         -5.7050     0.1810    -0.6630 ca         1 Y10      -0.089300
     19 C15         -5.2730     0.7220     0.5470 ca         1 Y10      -0.089300
     20 C16         -3.8340     0.3690     0.7920 c5         1 Y10      -0.047100
     21 C17         -7.0030     0.3860    -1.1030 ca         1 Y10      -0.093500
     22 C18         -7.8700     1.1400    -0.3190 ca         1 Y10      -0.110500
     23 C19         -7.4390     1.6810     0.8880 ca         1 Y10      -0.110500
     24 C20         -6.1360     1.4730     1.3290 ca         1 Y10      -0.093500
     25 HN          -1.9870    -0.5360    -1.4650 hn         1 Y10       0.304500
     26 HO1          3.2580     2.4010    -0.6240 ho         1 Y10       0.501000
     27 HO2          0.0280     1.1670    -0.5180 ho         1 Y10       0.495000
     28 HO3          2.0460     0.8950    -1.7760 ho         1 Y10       0.435000
     29 H02          5.2370     2.5030    -0.0640 ha         1 Y10       0.165000
     30 H03          4.8370    -0.4110     0.7770 ha         1 Y10       0.182000
     31 H04          2.7940     0.8130     1.6360 h1         1 Y10       0.091700
     32 H05          2.8130    -1.1590    -0.0090 h1         1 Y10       0.099700
     33 H06          0.9650    -0.7010     1.3800 h1         1 Y10       0.106700
     34 H07          0.0680    -1.2050    -1.4920 h1         1 Y10       0.041700
     35 H08          6.9080    -0.9430    -0.2190 hc         1 Y10       0.035922
     36 H08A         8.4550    -0.3440     0.3750 hc         1 Y10       0.035922
     37 H08B         7.0800    -0.4580     1.4700 hc         1 Y10       0.035922
     38 H09          6.9390     0.8350    -2.0670 hc         1 Y10       0.035922
     39 H09A         7.1900     2.5320    -1.6540 hc         1 Y10       0.035922
     40 H09B         8.5110     1.3790    -1.4720 hc         1 Y10       0.035922
     41 H10          8.7970     2.0820     0.9330 hc         1 Y10       0.035922
     42 H10A         7.4640     3.2280     0.7900 hc         1 Y10       0.035922
     43 H10B         7.4420     2.0070     2.0640 hc         1 Y10       0.035922
     44 H12         -3.9280    -1.7340     0.3510 h1         1 Y10       0.081700
     45 H13         -4.1210     0.0460    -2.0990 hc         1 Y10       0.060950
     46 H13A        -4.9110    -1.4990    -1.8090 hc         1 Y10       0.060950
     47 H16         -3.6130     0.1160     1.8300 hc         1 Y10       0.060950
     48 H16A        -3.1760     1.1990     0.5130 hc         1 Y10       0.060950
     49 H17         -7.3430    -0.0380    -2.0400 ha         1 Y10       0.115000
     50 H18         -8.8890     1.3020    -0.6470 ha         1 Y10       0.112000
     51 H19         -8.1250     2.2630     1.4900 ha         1 Y10       0.112000
     52 H20         -5.8070     1.8890     2.2730 ha         1 Y10       0.115000
     53 H21          0.4450    -3.4360    -2.1480 h1         1 Y10       0.036033
     54 H21A         0.9830    -4.5780    -0.9040 h1         1 Y10       0.036033
     55 H21B        -0.6880    -3.9970    -0.9030 h1         1 Y10       0.036033
     56 C21          0.3530    -3.7100    -1.0920 c3         1 Y10       0.142900
     57 C03          4.5680     0.6060     0.5110 c2         1 Y10      -0.262200
     58 C02          5.5130     1.4770     0.1750 c2         1 Y10      -0.191200
@<TRIPOS>BOND
     1     1    15 1   
     2     1    16 1   
     3     1    25 1   
     4     2     8 1   
     5     2    26 1   
     6     3    10 1   
     7     3    27 1   
     8     4     9 1   
     9     4    28 1   
    10     5    15 2   
    11     6    11 1   
    12     6    56 1   
    13     7    12 1   
    14     7    13 1   
    15     7    14 1   
    16     7    58 1   
    17     8     9 1   
    18     8    31 1   
    19     8    57 1   
    20     9    10 1   
    21     9    32 1   
    22    10    11 1   
    23    10    33 1   
    24    11    15 1   
    25    11    34 1   
    26    12    35 1   
    27    12    36 1   
    28    12    37 1   
    29    13    38 1   
    30    13    39 1   
    31    13    40 1   
    32    14    41 1   
    33    14    42 1   
    34    14    43 1   
    35    16    17 1   
    36    16    20 1   
    37    16    44 1   
    38    17    18 1   
    39    17    45 1   
    40    17    46 1   
    41    18    19 ar  
    42    18    21 ar  
    43    19    20 1   
    44    19    24 ar  
    45    20    47 1   
    46    20    48 1   
    47    21    22 ar  
    48    21    49 1   
    49    22    23 ar  
    50    22    50 1   
    51    23    24 ar  
    52    23    51 1   
    53    24    52 1   
    54    29    58 1   
    55    30    57 1   
    56    53    56 1   
    57    54    56 1   
    58    55    56 1   
    59    57    58 2   
@<TRIPOS>SUBSTRUCTURE
     1 Y10         1 TEMP              0 ****  ****    0 ROOT
