@<TRIPOS>MOLECULE
Y11
   64    66     1     0     0
SMALL
bcc


@<TRIPOS>ATOM
      1 C01          1.4730     1.0760    -0.9720 c          1 Y11       0.790100
      2 C02          2.5630     2.8980    -2.1300 c6         1 Y11       0.061500
      3 C03          3.9920     3.2160    -2.5260 c6         1 Y11       0.119400
      4 C04          4.7850     2.6410    -0.4260 c6         1 Y11       0.119400
      5 C05          3.3900     2.2890     0.0610 c6         1 Y11       0.061500
      6 O06          0.6050     1.0340    -1.8380 o          1 Y11      -0.648100
      7 O07          4.7610     3.6360    -1.4210 os         1 Y11      -0.396600
      8 N08          2.5550     1.9070    -1.0660 n          1 Y11      -0.475800
      9 N09          1.4160     0.2360     0.0990 ns         1 Y11      -0.559900
     10 C10          0.2210    -0.5230     0.3260 c3         1 Y11       0.049700
     11 C11          0.3890    -1.4500     1.5330 c3         1 Y11      -0.086400
     12 C12          1.5590    -2.4290     1.4460 c6         1 Y11      -0.057700
     13 C13          1.5790    -3.3090     2.6970 c6         1 Y11      -0.073400
     14 C14          2.7220    -4.3180     2.6740 c6         1 Y11      -0.072900
     15 C15          2.6680    -5.1820     1.4180 c6         1 Y11      -0.075400
     16 C16          2.6530    -4.3140     0.1640 c6         1 Y11      -0.072900
     17 C17          1.5120    -3.3010     0.1920 c6         1 Y11      -0.073400
     18 C18         -0.9660     0.4060     0.5830 c          1 Y11       0.653100
     19 O19         -0.8380     1.5150     1.0690 o          1 Y11      -0.587100
     20 N20         -2.1680    -0.1310     0.2960 ns         1 Y11      -0.573900
     21 C21         -3.6440     1.7400    -0.4110 c6         1 Y11      -0.083900
     22 C22         -3.8100     1.2660    -1.8450 c6         1 Y11       0.164300
     23 C23         -4.7170    -0.8350    -1.1460 c6         1 Y11       0.164300
     24 C24         -4.5740    -0.4610     0.3210 c6         1 Y11      -0.083900
     25 N25         -4.9180     0.3400    -1.9650 n3         1 Y11      -0.720600
     26 C26         -5.1770    -0.0100    -3.3440 c3         1 Y11       0.154100
     27 C27         -3.4800     1.0030     1.9310 c1         1 Y11       0.209700
     28 N28         -3.5950     1.3550     3.0190 n1         1 Y11      -0.358800
     29 C29         -3.4270     0.5430     0.5320 c6         1 Y11       0.203500
     30 H022         2.0320     2.5150    -2.9980 h1         1 Y11       0.057200
     31 H031         4.4440     2.3300    -2.9940 h1         1 Y11       0.053450
     32 H032         3.9980     4.0240    -3.2570 h1         1 Y11       0.053450
     33 H041         5.3750     3.0230     0.4090 h1         1 Y11       0.053450
     34 H042         5.2760     1.7310    -0.7990 h1         1 Y11       0.053450
     35 H051         3.5040     1.4810     0.7810 h1         1 Y11       0.057200
     36 H052         2.9500     3.1420     0.5900 h1         1 Y11       0.057200
     37 HN09         2.0240     0.3710     0.8880 hn         1 Y11       0.316500
     38 H10          0.0060    -1.1290    -0.5590 h1         1 Y11       0.080700
     39 H111         0.4940    -0.8440     2.4390 hc         1 Y11       0.054700
     40 H112        -0.5380    -2.0190     1.6520 hc         1 Y11       0.054700
     41 H12          2.4960    -1.8580     1.4260 hc         1 Y11       0.048700
     42 H131         1.6440    -2.6820     3.5910 hc         1 Y11       0.040200
     43 H132         0.6250    -3.8460     2.7630 hc         1 Y11       0.040200
     44 H141         3.6780    -3.7840     2.7040 hc         1 Y11       0.040200
     45 H142         2.6870    -4.9430     3.5690 hc         1 Y11       0.040200
     46 H151         3.5180    -5.8690     1.3930 hc         1 Y11       0.039700
     47 H152         1.7660    -5.8020     1.4420 hc         1 Y11       0.039700
     48 H161         3.6060    -3.7780     0.0880 hc         1 Y11       0.040200
     49 H162         2.5760    -4.9380    -0.7300 hc         1 Y11       0.040200
     50 H171         0.5510    -3.8300     0.1610 hc         1 Y11       0.040200
     51 H172         1.5570    -2.6810    -0.7070 hc         1 Y11       0.040200
     52 HN20        -2.2040    -1.0560    -0.1040 hn         1 Y11       0.321500
     53 H211        -2.8090     2.4340    -0.3360 hc         1 Y11       0.069450
     54 H212        -4.5460     2.2700    -0.0950 hc         1 Y11       0.069450
     55 H221        -4.0090     2.1360    -2.4750 h1         1 Y11       0.038200
     56 H222        -2.8630     0.8280    -2.2060 h1         1 Y11       0.038200
     57 H231        -3.8500    -1.4310    -1.4840 h1         1 Y11       0.038200
     58 H232        -5.5850    -1.4910    -1.2460 h1         1 Y11       0.038200
     59 H241        -5.5020    -0.0030     0.6650 hc         1 Y11       0.069450
     60 H242        -4.4030    -1.3540     0.9260 hc         1 Y11       0.069450
     61 H261        -6.0440    -0.6680    -3.4050 h1         1 Y11       0.032700
     62 H262        -5.3990     0.8890    -3.9210 h1         1 Y11       0.032700
     63 H263        -4.3320    -0.5210    -3.8290 h1         1 Y11       0.032700
     64 H021         2.0520     3.8140    -1.8050 h1         1 Y11       0.057200
@<TRIPOS>BOND
     1     1     6 2   
     2     1     8 1   
     3     1     9 1   
     4     2     3 1   
     5     2     8 1   
     6     2    30 1   
     7     2    64 1   
     8     3     7 1   
     9     3    31 1   
    10     3    32 1   
    11     4     5 1   
    12     4     7 1   
    13     4    33 1   
    14     4    34 1   
    15     5     8 1   
    16     5    35 1   
    17     5    36 1   
    18     9    10 1   
    19     9    37 1   
    20    10    11 1   
    21    10    18 1   
    22    10    38 1   
    23    11    12 1   
    24    11    39 1   
    25    11    40 1   
    26    12    13 1   
    27    12    17 1   
    28    12    41 1   
    29    13    14 1   
    30    13    42 1   
    31    13    43 1   
    32    14    15 1   
    33    14    44 1   
    34    14    45 1   
    35    15    16 1   
    36    15    46 1   
    37    15    47 1   
    38    16    17 1   
    39    16    48 1   
    40    16    49 1   
    41    17    50 1   
    42    17    51 1   
    43    18    19 2   
    44    18    20 1   
    45    20    29 1   
    46    20    52 1   
    47    21    22 1   
    48    21    29 1   
    49    21    53 1   
    50    21    54 1   
    51    22    25 1   
    52    22    55 1   
    53    22    56 1   
    54    23    24 1   
    55    23    25 1   
    56    23    57 1   
    57    23    58 1   
    58    24    29 1   
    59    24    59 1   
    60    24    60 1   
    61    25    26 1   
    62    26    61 1   
    63    26    62 1   
    64    26    63 1   
    65    27    28 3   
    66    27    29 1   
@<TRIPOS>SUBSTRUCTURE
     1 Y11         1 TEMP              0 ****  ****    0 ROOT
