@<TRIPOS>MOLECULE
Y11
   64    66     1     0     0
SMALL
No Charge or Current Charge


@<TRIPOS>ATOM
      1 C01          2.1270     0.6960    -0.9710 c          1 Y11       0.656100
      2 C02          4.0990     1.7600    -2.1040 c6         1 Y11       0.061500
      3 C03          5.3840     2.5930    -1.8660 c6         1 Y11       0.142600
      4 C04          4.5720     3.5050     0.1810 c6         1 Y11       0.142600
      5 C05          3.2320     2.7280     0.0960 c6         1 Y11       0.061500
      6 O06          2.0110    -0.1080    -1.8820 o          1 Y11      -0.648100
      7 O07          5.0820     3.7920    -1.1320 os         1 Y11      -0.443000
      8 N08          3.1890     1.6210    -0.9200 n          1 Y11      -0.408800
      9 N09          1.2260     0.7600     0.0650 ns         1 Y11      -0.492900
     10 C10          0.0540    -0.1260     0.2440 c3         1 Y11       0.049700
     11 C11          0.3480    -1.2180     1.3130 c3         1 Y11      -0.086400
     12 C12          1.4720    -2.2460     0.9700 c6         1 Y11      -0.057700
     13 C13          1.8090    -3.1280     2.2060 c6         1 Y11      -0.073400
     14 C14          2.9320    -4.1470     1.8920 c6         1 Y11      -0.072900
     15 C15          2.5590    -5.0350     0.6810 c6         1 Y11      -0.075400
     16 C16          2.2200    -4.1710    -0.5580 c6         1 Y11      -0.072900
     17 C17          1.0980    -3.1510    -0.2420 c6         1 Y11      -0.073400
     18 C18         -1.1960     0.7150     0.6340 c          1 Y11       0.586100
     19 O19         -1.1270     1.8790     1.0090 o          1 Y11      -0.587100
     20 N20         -2.4020     0.0490     0.5100 ns         1 Y11      -0.506900
     21 C21         -4.1790     1.6770    -0.1630 c6         1 Y11      -0.083900
     22 C22         -4.3250     1.1320    -1.6030 c6         1 Y11       0.164300
     23 C23         -4.9330    -1.0920    -0.7460 c6         1 Y11       0.164300
     24 C24         -4.7780    -0.5980     0.7140 c6         1 Y11      -0.083900
     25 N25         -5.3120     0.0220    -1.6540 n3         1 Y11      -0.720600
     26 C26         -5.5670    -0.4410    -3.0350 c3         1 Y11       0.154100
     27 C27         -3.7860     1.0830     2.2420 c1         1 Y11       0.298900
     28 N28         -3.8390     1.4630     3.3440 n1         1 Y11      -0.448000
     29 C29         -3.7520     0.5660     0.8410 c6         1 Y11       0.203500
     30 H022         4.3970     0.7610    -2.4530 h1         1 Y11       0.057200
     31 H031         6.1160     1.9980    -1.3010 h1         1 Y11       0.053450
     32 H032         5.8390     2.8620    -2.8300 h1         1 Y11       0.053450
     33 H041         4.4250     4.4470     0.7280 h1         1 Y11       0.053450
     34 H042         5.3150     2.9080     0.7320 h1         1 Y11       0.053450
     35 H051         3.0220     2.3210     1.0960 h1         1 Y11       0.057200
     36 H052         2.4320     3.4440    -0.1380 h1         1 Y11       0.057200
     37 HN09         1.3750     1.4910     0.7470 hn         1 Y11       0.316500
     38 H10         -0.1870    -0.6070    -0.7120 h1         1 Y11       0.080700
     39 H111         0.5990    -0.7060     2.2510 hc         1 Y11       0.054700
     40 H112        -0.5780    -1.7690     1.5200 hc         1 Y11       0.054700
     41 H12          2.3700    -1.6670     0.7140 hc         1 Y11       0.048700
     42 H131         2.1200    -2.4920     3.0460 hc         1 Y11       0.040200
     43 H132         0.9090    -3.6640     2.5390 hc         1 Y11       0.040200
     44 H141         3.8690    -3.6130     1.6850 hc         1 Y11       0.040200
     45 H142         3.1190    -4.7780     2.7720 hc         1 Y11       0.040200
     46 H151         3.3900    -5.7150     0.4460 hc         1 Y11       0.039700
     47 H152         1.6990    -5.6690     0.9370 hc         1 Y11       0.039700
     48 H161         3.1200    -3.6370    -0.8940 hc         1 Y11       0.040200
     49 H162         1.9120    -4.8180    -1.3900 hc         1 Y11       0.040200
     50 H171         0.1630    -3.6880    -0.0310 hc         1 Y11       0.040200
     51 H172         0.9100    -2.5420    -1.1350 hc         1 Y11       0.040200
     52 HN20        -2.3400    -0.9090     0.1870 hn         1 Y11       0.321500
     53 H211        -3.4570     2.5040    -0.1580 hc         1 Y11       0.069450
     54 H212        -5.1390     2.1120     0.1450 hc         1 Y11       0.069450
     55 H221        -4.6470     1.9550    -2.2580 h1         1 Y11       0.038200
     56 H222        -3.3440     0.7940    -1.9690 h1         1 Y11       0.038200
     57 H231        -3.9930    -1.5550    -1.0810 h1         1 Y11       0.038200
     58 H232        -5.7020    -1.8780    -0.7690 h1         1 Y11       0.038200
     59 H241        -5.7640    -0.2710     1.0740 hc         1 Y11       0.069450
     60 H242        -4.4830    -1.4400     1.3560 hc         1 Y11       0.069450
     61 H261        -6.3450    -1.2150    -3.0470 h1         1 Y11       0.032700
     62 H262        -5.9080     0.3910    -3.6660 h1         1 Y11       0.032700
     63 H263        -4.6560    -0.8620    -3.4830 h1         1 Y11       0.032700
     64 H021         3.5300     2.2260    -2.9200 h1         1 Y11       0.057200
@<TRIPOS>BOND
     1     1     6 2   
     2     1     8 1   
     3     1     9 1   
     4     2     3 1   
     5     2     8 1   
     6     2    30 1   
     7     2    64 1   
     8     3     7 1   
     9     3    31 1   
    10     3    32 1   
    11     4     5 1   
    12     4     7 1   
    13     4    33 1   
    14     4    34 1   
    15     5     8 1   
    16     5    35 1   
    17     5    36 1   
    18     9    10 1   
    19     9    37 1   
    20    10    11 1   
    21    10    18 1   
    22    10    38 1   
    23    11    12 1   
    24    11    39 1   
    25    11    40 1   
    26    12    13 1   
    27    12    17 1   
    28    12    41 1   
    29    13    14 1   
    30    13    42 1   
    31    13    43 1   
    32    14    15 1   
    33    14    44 1   
    34    14    45 1   
    35    15    16 1   
    36    15    46 1   
    37    15    47 1   
    38    16    17 1   
    39    16    48 1   
    40    16    49 1   
    41    17    50 1   
    42    17    51 1   
    43    18    19 2   
    44    18    20 1   
    45    20    29 1   
    46    20    52 1   
    47    21    22 1   
    48    21    29 1   
    49    21    53 1   
    50    21    54 1   
    51    22    25 1   
    52    22    55 1   
    53    22    56 1   
    54    23    24 1   
    55    23    25 1   
    56    23    57 1   
    57    23    58 1   
    58    24    29 1   
    59    24    59 1   
    60    24    60 1   
    61    25    26 1   
    62    26    61 1   
    63    26    62 1   
    64    26    63 1   
    65    27    28 3   
    66    27    29 1   
@<TRIPOS>SUBSTRUCTURE
     1 Y11         1 TEMP              0 ****  ****    0 ROOT
