@<TRIPOS>MOLECULE
Y12
   48    49     1     0     0
SMALL
abcg2


@<TRIPOS>ATOM
      1 C2          -9.6390    -0.4520    -0.2260 ca         1 Y12      -0.107000
      2 C3          -9.0590    -0.2890     1.0250 ca         1 Y12      -0.108000
      3 C4          -7.7730     0.2240     1.1350 ca         1 Y12      -0.104000
      4 C5          -7.0490     0.5840     0.0000 ca         1 Y12      -0.083300
      5 C7          -5.6390     1.0940     0.1180 c3         1 Y12      -0.048100
      6 C8          -4.6440    -0.0600     0.0810 c3         1 Y12       0.106000
      7 N9          -3.2870     0.4350     0.1670 ns         1 Y12      -0.508900
      8 C10         -2.2240    -0.3840     0.1940 c          1 Y12       0.600300
      9 O27         -2.3370    -1.6050     0.1700 o          1 Y12      -0.607100
     10 C11         -0.9120     0.3040     0.2570 ce         1 Y12      -0.292200
     11 C12          0.2210    -0.4020     0.2770 cf         1 Y12      -0.080200
     12 C13          1.5820     0.1230     0.3320 ca         1 Y12      -0.059800
     13 C18          2.6380    -0.7890     0.3050 ca         1 Y12      -0.082000
     14 C17          3.9490    -0.3530     0.3570 ca         1 Y12       0.099100
     15 O23          5.0070    -1.2230     0.3880 os         1 Y12      -0.365200
     16 C24          5.2530    -2.0080    -0.6930 c          1 Y12       0.601100
     17 O26          4.5320    -2.0450    -1.6460 o          1 Y12      -0.437000
     18 C25          6.5160    -2.7810    -0.4960 c3         1 Y12      -0.153100
     19 C16          4.2260     1.0040     0.4480 ca         1 Y12       0.114100
     20 O19          5.5140     1.4490     0.5990 os         1 Y12      -0.354200
     21 C20          6.3850     1.3070    -0.4280 c          1 Y12       0.599100
     22 O22          6.0570     0.8620    -1.4910 o          1 Y12      -0.454000
     23 C21          7.7470     1.7730    -0.0330 c3         1 Y12      -0.155100
     24 C15          3.1880     1.9220     0.4760 ca         1 Y12      -0.107000
     25 C14          1.8780     1.4860     0.4160 ca         1 Y12      -0.083000
     26 C6          -7.6420     0.4180    -1.2490 ca         1 Y12      -0.104000
     27 C1          -8.9270    -0.0950    -1.3640 ca         1 Y12      -0.108000
     28 H2         -10.6410    -0.8510    -0.3150 ha         1 Y12       0.113000
     29 H3          -9.6080    -0.5580     1.9180 ha         1 Y12       0.113000
     30 H4          -7.3280     0.3520     2.1150 ha         1 Y12       0.111500
     31 H71         -5.5190     1.6500     1.0510 hc         1 Y12       0.049200
     32 H72         -5.4260     1.7880    -0.6990 hc         1 Y12       0.049200
     33 H81         -4.7750    -0.6330    -0.8410 h1         1 Y12       0.056700
     34 H82         -4.8410    -0.7450     0.9100 h1         1 Y12       0.056700
     35 HN9         -3.1410     1.4320     0.1700 hn         1 Y12       0.312500
     36 H11         -0.9090     1.3880     0.2790 ha         1 Y12       0.175000
     37 H12          0.1420    -1.4840     0.2470 ha         1 Y12       0.202000
     38 H18          2.4290    -1.8500     0.2620 ha         1 Y12       0.135000
     39 H251         6.5040    -3.3030     0.4600 hc         1 Y12       0.072367
     40 H252         6.6480    -3.4990    -1.3000 hc         1 Y12       0.072367
     41 H253         7.3710    -2.1040    -0.4860 hc         1 Y12       0.072367
     42 H211         8.4290     1.7020    -0.8750 hc         1 Y12       0.073700
     43 H212         7.7130     2.8040     0.3200 hc         1 Y12       0.073700
     44 H213         8.1270     1.1620     0.7870 hc         1 Y12       0.073700
     45 H15          3.4120     2.9780     0.5540 ha         1 Y12       0.130000
     46 H14          1.0850     2.2220     0.4400 ha         1 Y12       0.119000
     47 H6          -7.0950     0.6970    -2.1430 ha         1 Y12       0.111500
     48 H1          -9.3730    -0.2150    -2.3430 ha         1 Y12       0.113000
@<TRIPOS>BOND
     1     1     2 ar  
     2     1    27 ar  
     3     1    28 1   
     4     2     3 ar  
     5     2    29 1   
     6     3     4 ar  
     7     3    30 1   
     8     4     5 1   
     9     4    26 ar  
    10     5     6 1   
    11     5    31 1   
    12     5    32 1   
    13     6     7 1   
    14     6    33 1   
    15     6    34 1   
    16     7     8 1   
    17     7    35 1   
    18     8     9 2   
    19     8    10 1   
    20    10    11 2   
    21    10    36 1   
    22    11    12 1   
    23    11    37 1   
    24    12    13 ar  
    25    12    25 ar  
    26    13    14 ar  
    27    13    38 1   
    28    14    15 1   
    29    14    19 ar  
    30    15    16 1   
    31    16    17 2   
    32    16    18 1   
    33    18    39 1   
    34    18    40 1   
    35    18    41 1   
    36    19    20 1   
    37    19    24 ar  
    38    20    21 1   
    39    21    22 2   
    40    21    23 1   
    41    23    42 1   
    42    23    43 1   
    43    23    44 1   
    44    24    25 ar  
    45    24    45 1   
    46    25    46 1   
    47    26    27 ar  
    48    26    47 1   
    49    27    48 1   
@<TRIPOS>SUBSTRUCTURE
     1 Y12         1 TEMP              0 ****  ****    0 ROOT
