@<TRIPOS>MOLECULE
Y12
   48    49     1     0     0
SMALL
No Charge or Current Charge


@<TRIPOS>ATOM
      1 C2          -9.8250    -0.2690    -0.1370 ca         1 Y12      -0.107000
      2 C3          -9.1930    -0.1670     1.1140 ca         1 Y12      -0.108000
      3 C4          -7.8560     0.2610     1.1950 ca         1 Y12      -0.104000
      4 C5          -7.1440     0.5900     0.0250 ca         1 Y12      -0.083300
      5 C7          -5.6940     1.0470     0.1120 c3         1 Y12      -0.048100
      6 C8          -4.7120    -0.1370     0.0320 c3         1 Y12       0.106000
      7 N9          -3.3180     0.3010     0.1150 ns         1 Y12      -0.508900
      8 C10         -2.2390    -0.5470     0.0670 c          1 Y12       0.600300
      9 O27         -2.3610    -1.7570    -0.0510 o          1 Y12      -0.607100
     10 C11         -0.9210     0.1320     0.1710 ce         1 Y12      -0.292200
     11 C12          0.2840    -0.5120     0.1460 cf         1 Y12      -0.080200
     12 C13          1.6500     0.0460     0.2400 ca         1 Y12      -0.059800
     13 C18          2.7580    -0.8260     0.1950 ca         1 Y12      -0.082000
     14 C17          4.0730    -0.3260     0.2760 ca         1 Y12       0.099100
     15 O23          5.1500    -1.1890     0.2730 os         1 Y12      -0.365200
     16 C24          5.3410    -2.1750    -0.6590 c          1 Y12       0.601100
     17 O26          4.6380    -2.3480    -1.6450 o          1 Y12      -0.437000
     18 C25          6.6130    -2.9640    -0.3830 c3         1 Y12      -0.153100
     19 C16          4.2850     1.0640     0.4190 ca         1 Y12       0.114100
     20 O19          5.5530     1.5900     0.5310 os         1 Y12      -0.354200
     21 C20          6.5170     1.4430    -0.4300 c          1 Y12       0.599100
     22 O22          6.3130     1.0080    -1.5550 o          1 Y12      -0.454000
     23 C21          7.8440     2.0420     0.0130 c3         1 Y12      -0.155100
     24 C15          3.1870     1.9350     0.4790 ca         1 Y12      -0.107000
     25 C14          1.8770     1.4320     0.3830 ca         1 Y12      -0.083000
     26 C6          -7.7820     0.4840    -1.2270 ca         1 Y12      -0.104000
     27 C1          -9.1180     0.0560    -1.3070 ca         1 Y12      -0.108000
     28 H2         -10.8590    -0.6000    -0.1990 ha         1 Y12       0.113000
     29 H3          -9.7380    -0.4200     2.0210 ha         1 Y12       0.113000
     30 H4          -7.3740     0.3340     2.1670 ha         1 Y12       0.111500
     31 H71         -5.5250     1.5910     1.0490 hc         1 Y12       0.049200
     32 H72         -5.4720     1.7530    -0.6980 hc         1 Y12       0.049200
     33 H81         -4.8610    -0.6710    -0.9160 h1         1 Y12       0.056700
     34 H82         -4.9150    -0.8350     0.8550 h1         1 Y12       0.056700
     35 HN9         -3.1220     1.2890     0.2150 hn         1 Y12       0.312500
     36 H11         -0.9530     1.2130     0.2730 ha         1 Y12       0.175000
     37 H12          0.2590    -1.6000     0.0420 ha         1 Y12       0.202000
     38 H18          2.5980    -1.8970     0.1070 ha         1 Y12       0.135000
     39 H251         6.5450    -3.4050     0.6180 hc         1 Y12       0.072367
     40 H252         6.8170    -3.7180    -1.1510 hc         1 Y12       0.072367
     41 H253         7.4460    -2.2620    -0.2710 hc         1 Y12       0.072367
     42 H211         8.6010     2.0190    -0.7790 hc         1 Y12       0.073700
     43 H212         7.6680     3.0590     0.3790 hc         1 Y12       0.073700
     44 H213         8.1790     1.5240     0.9180 hc         1 Y12       0.073700
     45 H15          3.3510     3.0030     0.5970 ha         1 Y12       0.130000
     46 H14          1.0470     2.1310     0.4270 ha         1 Y12       0.119000
     47 H6          -7.2420     0.7320    -2.1380 ha         1 Y12       0.111500
     48 H1          -9.6060    -0.0230    -2.2760 ha         1 Y12       0.113000
@<TRIPOS>BOND
     1     1     2 ar  
     2     1    27 ar  
     3     1    28 1   
     4     2     3 ar  
     5     2    29 1   
     6     3     4 ar  
     7     3    30 1   
     8     4     5 1   
     9     4    26 ar  
    10     5     6 1   
    11     5    31 1   
    12     5    32 1   
    13     6     7 1   
    14     6    33 1   
    15     6    34 1   
    16     7     8 1   
    17     7    35 1   
    18     8     9 2   
    19     8    10 1   
    20    10    11 2   
    21    10    36 1   
    22    11    12 1   
    23    11    37 1   
    24    12    13 ar  
    25    12    25 ar  
    26    13    14 ar  
    27    13    38 1   
    28    14    15 1   
    29    14    19 ar  
    30    15    16 1   
    31    16    17 2   
    32    16    18 1   
    33    18    39 1   
    34    18    40 1   
    35    18    41 1   
    36    19    20 1   
    37    19    24 ar  
    38    20    21 1   
    39    21    22 2   
    40    21    23 1   
    41    23    42 1   
    42    23    43 1   
    43    23    44 1   
    44    24    25 ar  
    45    24    45 1   
    46    25    46 1   
    47    26    27 ar  
    48    26    47 1   
    49    27    48 1   
@<TRIPOS>SUBSTRUCTURE
     1 Y12         1 TEMP              0 ****  ****    0 ROOT
