@<TRIPOS>MOLECULE
Y13
   39    40     1     0     0
SMALL
No Charge or Current Charge


@<TRIPOS>ATOM
      1 C2           7.3790     0.0230    -0.2390 ca         1 Y13       0.138100
      2 O16          8.7240    -0.1970    -0.2600 oh         1 Y13      -0.535100
      3 C1           6.5100    -0.8300    -0.9350 ca         1 Y13      -0.175000
      4 C6           5.1230    -0.5960    -0.9080 ca         1 Y13      -0.067500
      5 C5           4.6020     0.4940    -0.1840 ca         1 Y13      -0.118300
      6 C7           3.1000     0.7430    -0.1500 c3         1 Y13      -0.049100
      7 C8           2.4040    -0.0780     0.9550 c3         1 Y13       0.107000
      8 N9           0.9610     0.1710     1.0140 ns         1 Y13      -0.505900
      9 C10          0.0380    -0.3570     0.1440 c          1 Y13       0.602300
     10 C11         -1.3610     0.0740     0.4030 ce         1 Y13      -0.303200
     11 C12         -2.4410    -0.3250    -0.3320 cf         1 Y13      -0.071200
     12 C13         -3.8670     0.0320    -0.1750 ca         1 Y13      -0.078800
     13 C14         -4.3070     0.9040     0.8460 ca         1 Y13      -0.079000
     14 C15         -5.6700     1.2260     0.9710 ca         1 Y13      -0.130000
     15 C16         -6.6040     0.6800     0.0790 ca         1 Y13       0.138100
     16 O19         -7.9280     0.9870     0.1940 oh         1 Y13      -0.530100
     17 C17         -6.1800    -0.1910    -0.9430 ca         1 Y13       0.038100
     18 O23         -7.0970    -0.7230    -1.8130 oh         1 Y13      -0.558100
     19 C18         -4.8160    -0.5120    -1.0680 ca         1 Y13      -0.136000
     20 O27          0.3440    -1.1190    -0.7610 o          1 Y13      -0.612100
     21 C4           5.4800     1.3460     0.5150 ca         1 Y13      -0.067500
     22 C3           6.8660     1.1090     0.4860 ca         1 Y13      -0.175000
     23 H16          8.8990    -0.9910    -0.8100 ho         1 Y13       0.464000
     24 H1           6.8980    -1.6750    -1.4990 ha         1 Y13       0.120000
     25 H6           4.4540    -1.2620    -1.4480 ha         1 Y13       0.115000
     26 H71          2.8940     1.8080     0.0130 hc         1 Y13       0.055700
     27 H72          2.6570     0.4910    -1.1210 hc         1 Y13       0.055700
     28 H81          2.5770    -1.1490     0.7820 h1         1 Y13       0.054700
     29 H82          2.8430     0.1800     1.9280 h1         1 Y13       0.054700
     30 HN9          0.6070     0.7890     1.7350 hn         1 Y13       0.311500
     31 H11         -1.4980     0.7530     1.2400 ha         1 Y13       0.175000
     32 H12         -2.2460    -1.0080    -1.1630 ha         1 Y13       0.195000
     33 H14         -3.6020     1.3390     1.5480 ha         1 Y13       0.118000
     34 H15         -6.0010     1.8980     1.7590 ha         1 Y13       0.133000
     35 H19         -8.3790     0.4940    -0.5290 ho         1 Y13       0.485000
     36 H23         -6.6300    -1.3030    -2.4560 ho         1 Y13       0.477000
     37 H18         -4.4900    -1.1850    -1.8580 ha         1 Y13       0.118000
     38 H4           5.0900     2.1890     1.0810 ha         1 Y13       0.115000
     39 H3           7.5400     1.7690     1.0260 ha         1 Y13       0.120000
@<TRIPOS>BOND
     1     1     2 1   
     2     1     3 ar  
     3     1    22 ar  
     4     2    23 1   
     5     3     4 ar  
     6     3    24 1   
     7     4     5 ar  
     8     4    25 1   
     9     5     6 1   
    10     5    21 ar  
    11     6     7 1   
    12     6    26 1   
    13     6    27 1   
    14     7     8 1   
    15     7    28 1   
    16     7    29 1   
    17     8     9 1   
    18     8    30 1   
    19     9    10 1   
    20     9    20 2   
    21    10    11 2   
    22    10    31 1   
    23    11    12 1   
    24    11    32 1   
    25    12    13 ar  
    26    12    19 ar  
    27    13    14 ar  
    28    13    33 1   
    29    14    15 ar  
    30    14    34 1   
    31    15    16 1   
    32    15    17 ar  
    33    16    35 1   
    34    17    18 1   
    35    17    19 ar  
    36    18    36 1   
    37    19    37 1   
    38    21    22 ar  
    39    21    38 1   
    40    22    39 1   
@<TRIPOS>SUBSTRUCTURE
     1 Y13         1 TEMP              0 ****  ****    0 ROOT
