@<TRIPOS>MOLECULE
Y13
   39    40     1     0     0
SMALL
abcg2


@<TRIPOS>ATOM
      1 C2           7.2830    -0.0410    -0.2370 ca         1 Y13       0.138100
      2 O16          8.6140    -0.2570    -0.2010 oh         1 Y13      -0.535100
      3 C1           6.3980    -0.8930    -0.8930 ca         1 Y13      -0.175000
      4 C6           5.0390    -0.6140    -0.8930 ca         1 Y13      -0.067500
      5 C5           4.5250     0.5090    -0.2510 ca         1 Y13      -0.118300
      6 C7           3.0460     0.7750    -0.2170 c3         1 Y13      -0.049100
      7 C8           2.3700    -0.0060     0.9160 c3         1 Y13       0.107000
      8 N9           0.9550     0.2550     1.0260 ns         1 Y13      -0.505900
      9 C10          0.0340    -0.3120     0.2240 c          1 Y13       0.602300
     10 C11         -1.3550     0.1260     0.4880 ce         1 Y13      -0.303200
     11 C12         -2.3700    -0.3120    -0.2650 cf         1 Y13      -0.071200
     12 C13         -3.7800     0.0220    -0.1180 ca         1 Y13      -0.078800
     13 C14         -4.2840     0.7850     0.9360 ca         1 Y13      -0.079000
     14 C15         -5.6370     1.0640     1.0210 ca         1 Y13      -0.130000
     15 C16         -6.5230     0.5940     0.0590 ca         1 Y13       0.138100
     16 O19         -7.8310     0.8850     0.1760 oh         1 Y13      -0.530100
     17 C17         -6.0290    -0.1720    -1.0050 ca         1 Y13       0.038100
     18 O23         -6.9430    -0.5960    -1.9070 oh         1 Y13      -0.558100
     19 C18         -4.6780    -0.4520    -1.0820 ca         1 Y13      -0.136000
     20 O27          0.3280    -1.1280    -0.6440 o          1 Y13      -0.612100
     21 C4           5.4260     1.3490     0.4000 ca         1 Y13      -0.067500
     22 C3           6.7870     1.0870     0.4110 ca         1 Y13      -0.175000
     23 H16          8.8360    -1.0620    -0.6820 ho         1 Y13       0.464000
     24 H1           6.7660    -1.7760    -1.4040 ha         1 Y13       0.120000
     25 H6           4.3680    -1.2880    -1.4130 ha         1 Y13       0.115000
     26 H71          2.8590     1.8420    -0.0750 hc         1 Y13       0.055700
     27 H72          2.5890     0.4920    -1.1670 hc         1 Y13       0.055700
     28 H81          2.5300    -1.0760     0.7720 h1         1 Y13       0.054700
     29 H82          2.8270     0.2610     1.8690 h1         1 Y13       0.054700
     30 HN9          0.6570     0.9540     1.6860 hn         1 Y13       0.311500
     31 H11         -1.5160     0.8170     1.3080 ha         1 Y13       0.175000
     32 H12         -2.1350    -0.9880    -1.0820 ha         1 Y13       0.195000
     33 H14         -3.6280     1.1650     1.7070 ha         1 Y13       0.118000
     34 H15         -6.0210     1.6510     1.8450 ha         1 Y13       0.133000
     35 H19         -8.3340     0.4950    -0.5490 ho         1 Y13       0.485000
     36 H23         -6.5240    -1.1070    -2.6080 ho         1 Y13       0.477000
     37 H18         -4.3070    -1.0450    -1.9110 ha         1 Y13       0.118000
     38 H4           5.0610     2.2350     0.9070 ha         1 Y13       0.115000
     39 H3           7.4680     1.7590     0.9190 ha         1 Y13       0.120000
@<TRIPOS>BOND
     1     1     2 1   
     2     1     3 ar  
     3     1    22 ar  
     4     2    23 1   
     5     3     4 ar  
     6     3    24 1   
     7     4     5 ar  
     8     4    25 1   
     9     5     6 1   
    10     5    21 ar  
    11     6     7 1   
    12     6    26 1   
    13     6    27 1   
    14     7     8 1   
    15     7    28 1   
    16     7    29 1   
    17     8     9 1   
    18     8    30 1   
    19     9    10 1   
    20     9    20 2   
    21    10    11 2   
    22    10    31 1   
    23    11    12 1   
    24    11    32 1   
    25    12    13 ar  
    26    12    19 ar  
    27    13    14 ar  
    28    13    33 1   
    29    14    15 ar  
    30    14    34 1   
    31    15    16 1   
    32    15    17 ar  
    33    16    35 1   
    34    17    18 1   
    35    17    19 ar  
    36    18    36 1   
    37    19    37 1   
    38    21    22 ar  
    39    21    38 1   
    40    22    39 1   
@<TRIPOS>SUBSTRUCTURE
     1 Y13         1 TEMP              0 ****  ****    0 ROOT
