@<TRIPOS>MOLECULE
Y14
   71    74     1     0     0
SMALL
abcg2


@<TRIPOS>ATOM
      1 C01          2.7760    -0.9580     0.9790 c          1 Y14       0.654100
      2 C02          4.2380    -2.2210    -0.5910 c6         1 Y14       0.062500
      3 C03          4.6150    -3.6900    -0.7000 c6         1 Y14       0.142100
      4 C04          4.8400    -3.9080     1.5900 c6         1 Y14       0.142100
      5 C05          4.4950    -2.4510     1.8210 c6         1 Y14       0.062500
      6 O06          2.3740    -0.7210     2.1130 o          1 Y14      -0.642100
      7 O07          5.4670    -4.1000     0.3420 os         1 Y14      -0.443000
      8 N08          3.6860    -1.9460     0.7240 n          1 Y14      -0.417800
      9 N09          2.3020    -0.2790    -0.1060 ns         1 Y14      -0.510900
     10 C10          1.3750     0.8180     0.0450 c3         1 Y14       0.046700
     11 C11          2.0910     2.1590     0.2470 c3         1 Y14      -0.094400
     12 C12          1.1830     3.3850     0.3220 c6         1 Y14      -0.059700
     13 C13          0.2120     3.3360     1.5030 c6         1 Y14      -0.070900
     14 C14         -0.6630     4.5850     1.5680 c6         1 Y14      -0.073400
     15 C15          0.1810     5.8540     1.6230 c6         1 Y14      -0.074400
     16 C16          1.1570     5.9100     0.4530 c6         1 Y14      -0.073400
     17 C17          2.0260     4.6590     0.3940 c6         1 Y14      -0.070900
     18 C18          0.5300     0.8660    -1.2210 c          1 Y14       0.593100
     19 O19          1.0380     0.9090    -2.3300 o          1 Y14      -0.601100
     20 C20         -3.1590     1.0250    -1.5160 c5         1 Y14       0.160800
     21 C21         -1.8740    -0.5330    -2.7560 c5         1 Y14      -0.100400
     22 C22         -2.8660    -1.2650    -1.8330 c5         1 Y14       0.164800
     23 N23         -0.7990     0.8990    -1.0290 ns         1 Y14      -0.483900
     24 N24         -3.3000    -0.2570    -0.8710 n3         1 Y14      -0.756600
     25 C25         -4.5720    -0.5090    -0.2400 c3         1 Y14       0.229100
     26 C26         -4.5120    -1.7130     0.6650 ca         1 Y14      -0.094300
     27 C27         -3.4620    -1.8610     1.5700 ca         1 Y14      -0.097000
     28 C28         -3.4100    -2.9560     2.4190 ca         1 Y14      -0.112000
     29 C29         -4.4100    -3.9210     2.3780 ca         1 Y14      -0.106000
     30 C30         -5.4580    -3.7820     1.4800 ca         1 Y14      -0.112000
     31 C31         -5.5050    -2.6850     0.6270 ca         1 Y14      -0.097000
     32 C32         -1.4700     1.9240    -3.0830 c1         1 Y14       0.311900
     33 N33         -1.3190     2.7640    -3.8530 n1         1 Y14      -0.437000
     34 C34         -1.7560     0.8660    -2.1140 c5         1 Y14       0.189500
     35 H021         5.1120    -1.5890    -0.7910 h1         1 Y14       0.057200
     36 H022         3.4990    -2.0320    -1.3690 h1         1 Y14       0.057200
     37 H031         3.6970    -4.2950    -0.7050 h1         1 Y14       0.054700
     38 H032         5.1360    -3.8580    -1.6430 h1         1 Y14       0.054700
     39 H041         5.5310    -4.2480     2.3620 h1         1 Y14       0.054700
     40 H042         3.9280    -4.5180     1.6570 h1         1 Y14       0.054700
     41 H051         3.9500    -2.3570     2.7560 h1         1 Y14       0.057200
     42 H052         5.4180    -1.8630     1.9090 h1         1 Y14       0.057200
     43 HN09         2.8410    -0.2620    -0.9570 hn         1 Y14       0.321500
     44 H10          0.7420     0.6080     0.9080 h1         1 Y14       0.089700
     45 H111         2.6810     2.0850     1.1660 hc         1 Y14       0.056700
     46 H112         2.8040     2.2900    -0.5730 hc         1 Y14       0.056700
     47 H12          0.5890     3.4420    -0.6010 hc         1 Y14       0.054700
     48 H131        -0.4280     2.4520     1.4490 hc         1 Y14       0.038950
     49 H132         0.7870     3.2440     2.4320 hc         1 Y14       0.038950
     50 H141        -1.3080     4.6180     0.6830 hc         1 Y14       0.038950
     51 H142        -1.3280     4.5310     2.4330 hc         1 Y14       0.038950
     52 H151        -0.4610     6.7380     1.6250 hc         1 Y14       0.038700
     53 H152         0.7420     5.8730     2.5640 hc         1 Y14       0.038700
     54 H161         0.5940     5.9970    -0.4830 hc         1 Y14       0.038950
     55 H162         1.7850     6.8020     0.5220 hc         1 Y14       0.038950
     56 H171         2.6650     4.6140     1.2840 hc         1 Y14       0.038950
     57 H172         2.6980     4.7070    -0.4690 hc         1 Y14       0.038950
     58 H201        -3.8860     1.2100    -2.3220 h1         1 Y14       0.057200
     59 H202        -3.2250     1.8490    -0.8020 h1         1 Y14       0.057200
     60 H211        -0.9070    -1.0240    -2.8360 hc         1 Y14       0.070700
     61 H212        -2.2810    -0.4410    -3.7630 hc         1 Y14       0.070700
     62 H221        -3.7070    -1.6550    -2.4210 h1         1 Y14       0.049700
     63 H222        -2.4070    -2.1090    -1.3190 h1         1 Y14       0.049700
     64 HN23        -1.1770     0.6760    -0.1200 hn         1 Y14       0.340500
     65 H251        -4.8370     0.3730     0.3510 h1         1 Y14       0.041200
     66 H252        -5.3780    -0.6450    -0.9780 h1         1 Y14       0.041200
     67 H27         -2.6760    -1.1160     1.6030 ha         1 Y14       0.114500
     68 H28         -2.5870    -3.0580     3.1150 ha         1 Y14       0.114500
     69 H29         -4.3680    -4.7780     3.0390 ha         1 Y14       0.114000
     70 H30         -6.2390    -4.5310     1.4360 ha         1 Y14       0.114500
     71 H31         -6.3210    -2.5890    -0.0790 ha         1 Y14       0.114500
@<TRIPOS>BOND
     1     1     6 2   
     2     1     8 1   
     3     1     9 1   
     4     2     3 1   
     5     2     8 1   
     6     2    35 1   
     7     2    36 1   
     8     3     7 1   
     9     3    37 1   
    10     3    38 1   
    11     4     5 1   
    12     4     7 1   
    13     4    39 1   
    14     4    40 1   
    15     5     8 1   
    16     5    41 1   
    17     5    42 1   
    18     9    10 1   
    19     9    43 1   
    20    10    11 1   
    21    10    18 1   
    22    10    44 1   
    23    11    12 1   
    24    11    45 1   
    25    11    46 1   
    26    12    13 1   
    27    12    17 1   
    28    12    47 1   
    29    13    14 1   
    30    13    48 1   
    31    13    49 1   
    32    14    15 1   
    33    14    50 1   
    34    14    51 1   
    35    15    16 1   
    36    15    52 1   
    37    15    53 1   
    38    16    17 1   
    39    16    54 1   
    40    16    55 1   
    41    17    56 1   
    42    17    57 1   
    43    18    19 2   
    44    18    23 1   
    45    20    24 1   
    46    20    34 1   
    47    20    58 1   
    48    20    59 1   
    49    21    22 1   
    50    21    34 1   
    51    21    60 1   
    52    21    61 1   
    53    22    24 1   
    54    22    62 1   
    55    22    63 1   
    56    23    34 1   
    57    23    64 1   
    58    24    25 1   
    59    25    26 1   
    60    25    65 1   
    61    25    66 1   
    62    26    27 ar  
    63    26    31 ar  
    64    27    28 ar  
    65    27    67 1   
    66    28    29 ar  
    67    28    68 1   
    68    29    30 ar  
    69    29    69 1   
    70    30    31 ar  
    71    30    70 1   
    72    31    71 1   
    73    32    33 3   
    74    32    34 1   
@<TRIPOS>SUBSTRUCTURE
     1 Y14         1 TEMP              0 ****  ****    0 ROOT
