@<TRIPOS>MOLECULE
Y14
   71    74     1     0     0
SMALL
No Charge or Current Charge


@<TRIPOS>ATOM
      1 C01          3.3730    -1.2050     0.8110 c          1 Y14       0.654100
      2 C02          5.1210    -1.9740    -0.8730 c6         1 Y14       0.062500
      3 C03          6.2390    -3.0250    -1.1040 c6         1 Y14       0.142100
      4 C04          6.4990    -3.4550     1.2260 c6         1 Y14       0.142100
      5 C05          5.4090    -2.4280     1.6250 c6         1 Y14       0.062500
      6 O06          2.9710    -1.0630     1.9550 o          1 Y14      -0.642100
      7 O07          7.1500    -3.0570     0.0080 os         1 Y14      -0.443000
      8 N08          4.5270    -1.9540     0.5090 n          1 Y14      -0.417800
      9 N09          2.7190    -0.6510    -0.2610 ns         1 Y14      -0.510900
     10 C10          1.4970     0.1800    -0.1850 c3         1 Y14       0.046700
     11 C11          1.8720     1.6320     0.2460 c3         1 Y14      -0.094400
     12 C12          0.7050     2.6410     0.5030 c6         1 Y14      -0.059700
     13 C13         -0.2990     2.1420     1.5860 c6         1 Y14      -0.070900
     14 C14         -1.4450     3.1600     1.8070 c6         1 Y14      -0.073400
     15 C15         -0.8890     4.5540     2.1860 c6         1 Y14      -0.074400
     16 C16          0.1190     5.0600     1.1260 c6         1 Y14      -0.073400
     17 C17          1.2610     4.0370     0.9030 c6         1 Y14      -0.070900
     18 C18          0.7320     0.1080    -1.5430 c          1 Y14       0.593100
     19 O19          1.2500    -0.3220    -2.5680 o          1 Y14      -0.601100
     20 C20         -2.7760     1.1580    -2.1440 c5         1 Y14       0.160800
     21 C21         -1.9800    -1.0860    -2.6140 c5         1 Y14      -0.100400
     22 C22         -3.2770    -1.0730    -1.7390 c5         1 Y14       0.164800
     23 N23         -0.5810     0.5360    -1.4830 ns         1 Y14      -0.483900
     24 N24         -3.2380     0.2490    -1.0680 n3         1 Y14      -0.756600
     25 C25         -4.4690     0.6540    -0.3600 c3         1 Y14       0.229100
     26 C26         -4.8010    -0.2720     0.8050 ca         1 Y14      -0.094300
     27 C27         -4.0110    -0.2480     1.9720 ca         1 Y14      -0.097000
     28 C28         -4.3100    -1.1000     3.0490 ca         1 Y14      -0.112000
     29 C29         -5.4000    -1.9820     2.9660 ca         1 Y14      -0.106000
     30 C30         -6.1910    -2.0130     1.8040 ca         1 Y14      -0.112000
     31 C31         -5.8920    -1.1600     0.7260 ca         1 Y14      -0.097000
     32 C32         -1.0340     0.9290    -3.9570 c1         1 Y14       0.311900
     33 N33         -0.7100     1.3570    -4.9930 n1         1 Y14      -0.437000
     34 C34         -1.5000     0.4100    -2.6400 c5         1 Y14       0.189500
     35 H021         5.5330    -0.9780    -1.0860 h1         1 Y14       0.057200
     36 H022         4.3310    -2.1640    -1.6130 h1         1 Y14       0.057200
     37 H031         5.7920    -4.0220    -1.2300 h1         1 Y14       0.054700
     38 H032         6.7930    -2.7850    -2.0220 h1         1 Y14       0.054700
     39 H041         7.2470    -3.5370     2.0280 h1         1 Y14       0.054700
     40 H042         6.0450    -4.4470     1.0850 h1         1 Y14       0.054700
     41 H051         4.7890    -2.8740     2.4150 h1         1 Y14       0.057200
     42 H052         5.9040    -1.5520     2.0660 h1         1 Y14       0.057200
     43 HN09         3.1010    -0.8440    -1.1780 hn         1 Y14       0.321500
     44 H10          0.8390    -0.2630     0.5730 h1         1 Y14       0.089700
     45 H111         2.4780     1.5680     1.1590 hc         1 Y14       0.056700
     46 H112         2.5390     2.0460    -0.5200 hc         1 Y14       0.056700
     47 H12          0.1720     2.7710    -0.4480 hc         1 Y14       0.054700
     48 H131        -0.7380     1.1770     1.3020 hc         1 Y14       0.038950
     49 H132         0.2300     1.9720     2.5340 hc         1 Y14       0.038950
     50 H141        -2.0530     3.2370     0.8950 hc         1 Y14       0.038950
     51 H142        -2.1150     2.8000     2.5990 hc         1 Y14       0.038950
     52 H151        -1.7160     5.2700     2.2870 hc         1 Y14       0.038700
     53 H152        -0.3990     4.5020     3.1680 hc         1 Y14       0.038700
     54 H161        -0.4040     5.2440     0.1770 hc         1 Y14       0.038950
     55 H162         0.5390     6.0240     1.4420 hc         1 Y14       0.038950
     56 H171         1.8620     3.9520     1.8190 hc         1 Y14       0.038950
     57 H172         1.9360     4.4100     0.1210 hc         1 Y14       0.038950
     58 H201        -3.5270     1.2520    -2.9420 h1         1 Y14       0.057200
     59 H202        -2.5490     2.1680    -1.7730 h1         1 Y14       0.057200
     60 H211        -1.2260    -1.7690    -2.2070 hc         1 Y14       0.070700
     61 H212        -2.2150    -1.4570    -3.6180 hc         1 Y14       0.070700
     62 H221        -4.1700    -1.1650    -2.3740 h1         1 Y14       0.049700
     63 H222        -3.2950    -1.9020    -1.0180 h1         1 Y14       0.049700
     64 HN23        -0.9390     0.7950    -0.5720 hn         1 Y14       0.340500
     65 H251        -4.3480     1.6710     0.0360 h1         1 Y14       0.041200
     66 H252        -5.3160     0.6810    -1.0590 h1         1 Y14       0.041200
     67 H27         -3.1640     0.4300     2.0380 ha         1 Y14       0.114500
     68 H28         -3.6960    -1.0770     3.9470 ha         1 Y14       0.114500
     69 H29         -5.6320    -2.6420     3.7990 ha         1 Y14       0.114000
     70 H30         -7.0340    -2.6970     1.7380 ha         1 Y14       0.114500
     71 H31         -6.5070    -1.1920    -0.1700 ha         1 Y14       0.114500
@<TRIPOS>BOND
     1     1     6 2   
     2     1     8 1   
     3     1     9 1   
     4     2     3 1   
     5     2     8 1   
     6     2    35 1   
     7     2    36 1   
     8     3     7 1   
     9     3    37 1   
    10     3    38 1   
    11     4     5 1   
    12     4     7 1   
    13     4    39 1   
    14     4    40 1   
    15     5     8 1   
    16     5    41 1   
    17     5    42 1   
    18     9    10 1   
    19     9    43 1   
    20    10    11 1   
    21    10    18 1   
    22    10    44 1   
    23    11    12 1   
    24    11    45 1   
    25    11    46 1   
    26    12    13 1   
    27    12    17 1   
    28    12    47 1   
    29    13    14 1   
    30    13    48 1   
    31    13    49 1   
    32    14    15 1   
    33    14    50 1   
    34    14    51 1   
    35    15    16 1   
    36    15    52 1   
    37    15    53 1   
    38    16    17 1   
    39    16    54 1   
    40    16    55 1   
    41    17    56 1   
    42    17    57 1   
    43    18    19 2   
    44    18    23 1   
    45    20    24 1   
    46    20    34 1   
    47    20    58 1   
    48    20    59 1   
    49    21    22 1   
    50    21    34 1   
    51    21    60 1   
    52    21    61 1   
    53    22    24 1   
    54    22    62 1   
    55    22    63 1   
    56    23    34 1   
    57    23    64 1   
    58    24    25 1   
    59    25    26 1   
    60    25    65 1   
    61    25    66 1   
    62    26    27 ar  
    63    26    31 ar  
    64    27    28 ar  
    65    27    67 1   
    66    28    29 ar  
    67    28    68 1   
    68    29    30 ar  
    69    29    69 1   
    70    30    31 ar  
    71    30    70 1   
    72    31    71 1   
    73    32    33 3   
    74    32    34 1   
@<TRIPOS>SUBSTRUCTURE
     1 Y14         1 TEMP              0 ****  ****    0 ROOT
