@<TRIPOS>MOLECULE
Y15
   69    71     1     0     0
SMALL
No Charge or Current Charge


@<TRIPOS>ATOM
      1 C01          4.4590    -0.3670     0.7610 c          1 Y15       0.654100
      2 C02          5.4710    -2.1140    -0.7910 c6         1 Y15       0.062500
      3 C03          6.6010    -3.1730    -0.8930 c6         1 Y15       0.141600
      4 C04          7.9020    -2.1430     0.8180 c6         1 Y15       0.141600
      5 C05          6.8720    -1.0060     1.0360 c6         1 Y15       0.062500
      6 O06          4.5510     0.4590     1.6550 o          1 Y15      -0.645100
      7 O07          7.8730    -2.6000    -0.5450 os         1 Y15      -0.443000
      8 N08          5.5210    -1.2300     0.4240 n          1 Y15      -0.417800
      9 N09          3.3070    -0.5170     0.0290 ns         1 Y15      -0.506900
     10 C10          2.0800     0.2930     0.1900 c3         1 Y15       0.045700
     11 C11          2.2590     1.6570    -0.5410 c3         1 Y15      -0.098400
     12 C12          1.0800     2.6770    -0.4480 c6         1 Y15      -0.058700
     13 C13          0.7780     3.1140     1.0160 c6         1 Y15      -0.070400
     14 C14         -0.3960     4.1210     1.0750 c6         1 Y15      -0.073900
     15 C15         -0.1180     5.3590     0.1890 c6         1 Y15      -0.074400
     16 C16          0.1940     4.9420    -1.2680 c6         1 Y15      -0.073900
     17 C17          1.3650     3.9300    -1.3240 c6         1 Y15      -0.070400
     18 C18          0.8550    -0.5120    -0.3390 c          1 Y15       0.601100
     19 O19          0.9610    -1.3850    -1.1910 o          1 Y15      -0.589100
     20 C20         -2.7540     0.0500     0.7170 c3         1 Y15       0.151600
     21 C21         -1.7270    -2.2460     0.2740 c3         1 Y15      -0.098100
     22 N22         -0.3580    -0.1760     0.2360 ns         1 Y15      -0.510900
     23 O23         -4.0730    -0.4570     0.4290 os         1 Y15      -0.444000
     24 C24         -5.1340     0.2040     1.1340 c3         1 Y15       0.209900
     25 C25         -6.4530    -0.4370     0.7240 ca         1 Y15      -0.094300
     26 C26         -6.9640    -1.5350     1.4440 ca         1 Y15      -0.090000
     27 C27         -8.1820    -2.1270     1.0650 ca         1 Y15      -0.113000
     28 C28         -8.8960    -1.6240    -0.0360 ca         1 Y15      -0.103000
     29 C29         -8.3900    -0.5310    -0.7590 ca         1 Y15      -0.113000
     30 C30         -7.1720     0.0610    -0.3810 ca         1 Y15      -0.090000
     31 C31         -1.9680    -0.5520    -1.5470 c1         1 Y15       0.307900
     32 N32         -2.1680    -0.3820    -2.6840 n1         1 Y15      -0.442000
     33 C33         -1.6860    -0.7390    -0.1000 c3         1 Y15       0.207500
     34 H021         5.5130    -1.4750    -1.6840 h1         1 Y15       0.057700
     35 H022         4.5120    -2.6510    -0.8200 h1         1 Y15       0.057700
     36 H031         6.3870    -4.0120    -0.2160 h1         1 Y15       0.055200
     37 H032         6.6490    -3.5700    -1.9170 h1         1 Y15       0.055200
     38 H041         8.9120    -1.7840     1.0600 h1         1 Y15       0.055200
     39 H042         7.6740    -2.9870     1.4860 h1         1 Y15       0.055200
     40 H051         6.7610    -0.8450     2.1170 h1         1 Y15       0.057700
     41 H052         7.2880    -0.0780     0.6170 h1         1 Y15       0.057700
     42 HN09         3.3090    -1.2390    -0.6800 hn         1 Y15       0.323500
     43 H10          1.9230     0.4660     1.2620 h1         1 Y15       0.087700
     44 H111         3.1680     2.1360    -0.1570 hc         1 Y15       0.058700
     45 H112         2.4620     1.4430    -1.5980 hc         1 Y15       0.058700
     46 H12          0.1900     2.1850    -0.8650 hc         1 Y15       0.053700
     47 H131         0.5340     2.2470     1.6420 hc         1 Y15       0.038450
     48 H132         1.6750     3.5700     1.4600 hc         1 Y15       0.038450
     49 H141        -1.3230     3.6300     0.7460 hc         1 Y15       0.038950
     50 H142        -0.5630     4.4380     2.1140 hc         1 Y15       0.038950
     51 H151        -0.9840     6.0340     0.2070 hc         1 Y15       0.039700
     52 H152         0.7290     5.9260     0.6010 hc         1 Y15       0.039700
     53 H161        -0.7010     4.4970    -1.7250 hc         1 Y15       0.038950
     54 H162         0.4400     5.8300    -1.8650 hc         1 Y15       0.038950
     55 H171         2.2900     4.4190    -0.9870 hc         1 Y15       0.038450
     56 H172         1.5350     3.6280    -2.3670 hc         1 Y15       0.038450
     57 H201        -2.6920     1.1170     0.4650 h1         1 Y15       0.033700
     58 H202        -2.5350    -0.0540     1.7890 h1         1 Y15       0.033700
     59 H211        -1.5050    -2.3840     1.3390 hc         1 Y15       0.059367
     60 H212        -2.7170    -2.6760     0.0790 hc         1 Y15       0.059367
     61 H213        -0.9990    -2.8280    -0.3010 hc         1 Y15       0.059367
     62 HN22        -0.3250     0.5460     0.9450 hn         1 Y15       0.324500
     63 H241        -4.9990     0.1050     2.2190 h1         1 Y15       0.032200
     64 H242        -5.1540     1.2740     0.8910 h1         1 Y15       0.032200
     65 H26         -6.4150    -1.9320     2.2960 ha         1 Y15       0.118000
     66 H27         -8.5720    -2.9740     1.6250 ha         1 Y15       0.114500
     67 H28         -9.8380    -2.0820    -0.3290 ha         1 Y15       0.113000
     68 H29         -8.9410    -0.1420    -1.6130 ha         1 Y15       0.114500
     69 H30         -6.7850     0.9060    -0.9470 ha         1 Y15       0.118000
@<TRIPOS>BOND
     1     1     6 2   
     2     1     8 1   
     3     1     9 1   
     4     2     3 1   
     5     2     8 1   
     6     2    34 1   
     7     2    35 1   
     8     3     7 1   
     9     3    36 1   
    10     3    37 1   
    11     4     5 1   
    12     4     7 1   
    13     4    38 1   
    14     4    39 1   
    15     5     8 1   
    16     5    40 1   
    17     5    41 1   
    18     9    10 1   
    19     9    42 1   
    20    10    11 1   
    21    10    18 1   
    22    10    43 1   
    23    11    12 1   
    24    11    44 1   
    25    11    45 1   
    26    12    13 1   
    27    12    17 1   
    28    12    46 1   
    29    13    14 1   
    30    13    47 1   
    31    13    48 1   
    32    14    15 1   
    33    14    49 1   
    34    14    50 1   
    35    15    16 1   
    36    15    51 1   
    37    15    52 1   
    38    16    17 1   
    39    16    53 1   
    40    16    54 1   
    41    17    55 1   
    42    17    56 1   
    43    18    19 2   
    44    18    22 1   
    45    20    23 1   
    46    20    33 1   
    47    20    57 1   
    48    20    58 1   
    49    21    33 1   
    50    21    59 1   
    51    21    60 1   
    52    21    61 1   
    53    22    33 1   
    54    22    62 1   
    55    23    24 1   
    56    24    25 1   
    57    24    63 1   
    58    24    64 1   
    59    25    26 ar  
    60    25    30 ar  
    61    26    27 ar  
    62    26    65 1   
    63    27    28 ar  
    64    27    66 1   
    65    28    29 ar  
    66    28    67 1   
    67    29    30 ar  
    68    29    68 1   
    69    30    69 1   
    70    31    32 3   
    71    31    33 1   
@<TRIPOS>SUBSTRUCTURE
     1 Y15         1 TEMP              0 ****  ****    0 ROOT
