@<TRIPOS>MOLECULE
Y15
   69    71     1     0     0
SMALL
abcg2


@<TRIPOS>ATOM
      1 C01          4.3000    -0.3650     0.6110 c          1 Y15       0.654100
      2 C02          5.4130    -1.9740    -0.9350 c6         1 Y15       0.062500
      3 C03          6.2890    -3.1910    -0.6850 c6         1 Y15       0.141600
      4 C04          7.4730    -2.1160     0.9870 c6         1 Y15       0.141600
      5 C05          6.6710    -0.8420     0.8110 c6         1 Y15       0.062500
      6 O06          4.3370     0.3740     1.5910 o          1 Y15      -0.645100
      7 O07          7.5690    -2.8370    -0.2210 os         1 Y15      -0.443000
      8 N08          5.3630    -1.1470     0.2570 n          1 Y15      -0.417800
      9 N09          3.1750    -0.4790    -0.1510 ns         1 Y15      -0.506900
     10 C10          2.0390     0.3800     0.0880 c3         1 Y15       0.045700
     11 C11          2.1940     1.7400    -0.6090 c3         1 Y15      -0.098400
     12 C12          1.0160     2.7040    -0.4820 c6         1 Y15      -0.058700
     13 C13          0.7210     3.1050     0.9640 c6         1 Y15      -0.070400
     14 C14         -0.4260     4.1090     1.0510 c6         1 Y15      -0.073900
     15 C15         -0.1550     5.3450     0.2010 c6         1 Y15      -0.074400
     16 C16          0.1440     4.9610    -1.2440 c6         1 Y15      -0.073900
     17 C17          1.2840     3.9520    -1.3250 c6         1 Y15      -0.070400
     18 C18          0.8060    -0.3290    -0.4530 c          1 Y15       0.601100
     19 O19          0.7880    -0.8230    -1.5670 o          1 Y15      -0.589100
     20 C20         -2.5620    -0.3250     1.0330 c3         1 Y15       0.151600
     21 C21         -1.5470    -2.4030    -0.0050 c3         1 Y15      -0.098100
     22 N22         -0.2680    -0.3120     0.3580 ns         1 Y15      -0.510900
     23 O23         -3.8300    -0.7720     0.6760 os         1 Y15      -0.444000
     24 C24         -4.8640    -0.1870     1.4360 c3         1 Y15       0.209900
     25 C25         -6.1870    -0.6050     0.8630 ca         1 Y15      -0.094300
     26 C26         -7.2160    -1.0270     1.6980 ca         1 Y15      -0.090000
     27 C27         -8.4550    -1.3780     1.1740 ca         1 Y15      -0.113000
     28 C28         -8.6710    -1.3200    -0.1960 ca         1 Y15      -0.103000
     29 C29         -7.6460    -0.9040    -1.0370 ca         1 Y15      -0.113000
     30 C30         -6.4120    -0.5470    -0.5120 ca         1 Y15      -0.090000
     31 C31         -1.9730    -0.3660    -1.3150 c1         1 Y15       0.307900
     32 N32         -2.3600     0.0320    -2.3210 n1         1 Y15      -0.442000
     33 C33         -1.5570    -0.8730     0.0070 c3         1 Y15       0.207500
     34 H021         5.7950    -1.4050    -1.7910 h1         1 Y15       0.057700
     35 H022         4.4230    -2.3460    -1.1940 h1         1 Y15       0.057700
     36 H031         5.7870    -3.8500     0.0360 h1         1 Y15       0.055200
     37 H032         6.4130    -3.7430    -1.6180 h1         1 Y15       0.055200
     38 H041         8.4870    -1.8710     1.3060 h1         1 Y15       0.055200
     39 H042         7.0110    -2.7360     1.7680 h1         1 Y15       0.055200
     40 H051         6.5600    -0.3540     1.7760 h1         1 Y15       0.057700
     41 H052         7.2110    -0.1540     0.1480 h1         1 Y15       0.057700
     42 HN09         3.2380    -0.8480    -1.0860 hn         1 Y15       0.323500
     43 H10          1.9480     0.5230     1.1650 h1         1 Y15       0.087700
     44 H111         3.0930     2.2130    -0.2030 hc         1 Y15       0.058700
     45 H112         2.3910     1.5550    -1.6690 hc         1 Y15       0.058700
     46 H12          0.1170     2.2240    -0.8910 hc         1 Y15       0.053700
     47 H131         0.4800     2.2320     1.5770 hc         1 Y15       0.038450
     48 H132         1.6240     3.5450     1.4030 hc         1 Y15       0.038450
     49 H141        -1.3520     3.6310     0.7100 hc         1 Y15       0.038950
     50 H142        -0.5940     4.3940     2.0920 hc         1 Y15       0.038950
     51 H151        -1.0070     6.0280     0.2450 hc         1 Y15       0.039700
     52 H152         0.7010     5.8880     0.6160 hc         1 Y15       0.039700
     53 H161        -0.7550     4.5280    -1.6970 hc         1 Y15       0.038950
     54 H162         0.3890     5.8490    -1.8310 hc         1 Y15       0.038950
     55 H171         2.2120     4.4210    -0.9760 hc         1 Y15       0.038450
     56 H172         1.4570     3.6610    -2.3650 hc         1 Y15       0.038450
     57 H201        -2.5060     0.7730     1.0430 h1         1 Y15       0.033700
     58 H202        -2.2620    -0.6820     2.0290 h1         1 Y15       0.033700
     59 H211        -1.2800    -2.7610     0.9890 hc         1 Y15       0.059367
     60 H212        -2.5270    -2.7990    -0.2650 hc         1 Y15       0.059367
     61 H213        -0.8210    -2.7830    -0.7200 hc         1 Y15       0.059367
     62 HN22        -0.1600     0.0310     1.3000 hn         1 Y15       0.324500
     63 H241        -4.7930    -0.4840     2.4900 h1         1 Y15       0.032200
     64 H242        -4.7750     0.9070     1.4080 h1         1 Y15       0.032200
     65 H26         -7.0510    -1.0860     2.7670 ha         1 Y15       0.118000
     66 H27         -9.2460    -1.7040     1.8360 ha         1 Y15       0.114500
     67 H28         -9.6330    -1.5990    -0.6070 ha         1 Y15       0.113000
     68 H29         -7.8080    -0.8570    -2.1060 ha         1 Y15       0.114500
     69 H30         -5.6220    -0.2230    -1.1770 ha         1 Y15       0.118000
@<TRIPOS>BOND
     1     1     6 2   
     2     1     8 1   
     3     1     9 1   
     4     2     3 1   
     5     2     8 1   
     6     2    34 1   
     7     2    35 1   
     8     3     7 1   
     9     3    36 1   
    10     3    37 1   
    11     4     5 1   
    12     4     7 1   
    13     4    38 1   
    14     4    39 1   
    15     5     8 1   
    16     5    40 1   
    17     5    41 1   
    18     9    10 1   
    19     9    42 1   
    20    10    11 1   
    21    10    18 1   
    22    10    43 1   
    23    11    12 1   
    24    11    44 1   
    25    11    45 1   
    26    12    13 1   
    27    12    17 1   
    28    12    46 1   
    29    13    14 1   
    30    13    47 1   
    31    13    48 1   
    32    14    15 1   
    33    14    49 1   
    34    14    50 1   
    35    15    16 1   
    36    15    51 1   
    37    15    52 1   
    38    16    17 1   
    39    16    53 1   
    40    16    54 1   
    41    17    55 1   
    42    17    56 1   
    43    18    19 2   
    44    18    22 1   
    45    20    23 1   
    46    20    33 1   
    47    20    57 1   
    48    20    58 1   
    49    21    33 1   
    50    21    59 1   
    51    21    60 1   
    52    21    61 1   
    53    22    33 1   
    54    22    62 1   
    55    23    24 1   
    56    24    25 1   
    57    24    63 1   
    58    24    64 1   
    59    25    26 ar  
    60    25    30 ar  
    61    26    27 ar  
    62    26    65 1   
    63    27    28 ar  
    64    27    66 1   
    65    28    29 ar  
    66    28    67 1   
    67    29    30 ar  
    68    29    68 1   
    69    30    69 1   
    70    31    32 3   
    71    31    33 1   
@<TRIPOS>SUBSTRUCTURE
     1 Y15         1 TEMP              0 ****  ****    0 ROOT
