@<TRIPOS>MOLECULE
Y16
   48    47     1     0     0
SMALL
bcc


@<TRIPOS>ATOM
      1 N1          -3.6480     0.2210     0.1370 ns         1 Y16      -0.564900
      2 O1           1.9010    -2.0230    -0.6840 oh         1 Y16      -0.585800
      3 N2          -7.0080    -1.1090     0.3670 nt         1 Y16      -0.669000
      4 O2          -0.9170    -1.1440    -0.8400 oh         1 Y16      -0.571800
      5 O3           0.9970    -0.2320     1.3260 oh         1 Y16      -0.591800
      6 O4          -2.9700     1.3710    -1.6790 o          1 Y16      -0.588100
      7 O5          -5.2400    -1.1530     1.7720 o          1 Y16      -0.614100
      8 O6          -0.9120     2.3510     0.0150 os         1 Y16      -0.383600
      9 C01          5.8820    -0.4380     0.1500 c3         1 Y16      -0.013800
     10 C04          2.0620    -0.6330    -0.8350 c3         1 Y16       0.156300
     11 C05          1.0160     0.1640    -0.0260 c3         1 Y16       0.087100
     12 C06         -0.3730     0.1420    -0.6710 c3         1 Y16       0.126100
     13 C07         -1.3690     1.0330     0.0860 c3         1 Y16       0.043100
     14 C08          6.1920    -0.8570     1.5930 c3         1 Y16      -0.082433
     15 C09          6.8560    -1.1530    -0.7950 c3         1 Y16      -0.082433
     16 C10          6.0520     1.0720     0.0090 c3         1 Y16      -0.082433
     17 C11         -2.7420     0.8950    -0.5770 c          1 Y16       0.643100
     18 C12         -4.9670    -0.0660    -0.3510 c3         1 Y16       0.017000
     19 C13         -5.7470    -0.8300     0.7080 c          1 Y16       0.661100
     20 HN1         -3.4140    -0.1390     1.0500 hn         1 Y16       0.339500
     21 HO1          2.3440    -2.3050     0.1240 ho         1 Y16       0.401000
     22 HN2         -7.3970    -0.8280    -0.5160 hn         1 Y16       0.319500
     23 HN2A        -7.6060    -1.6180     0.9970 hn         1 Y16       0.319500
     24 HO2         -0.9970    -1.5810     0.0150 ho         1 Y16       0.398000
     25 HO3          0.8590    -1.1840     1.3780 ho         1 Y16       0.398000
     26 H02          4.3730    -1.9870    -0.1370 ha         1 Y16       0.115000
     27 H03          3.5630     0.9290    -0.5780 ha         1 Y16       0.131000
     28 H04          1.8790    -0.4160    -1.8950 h1         1 Y16       0.090700
     29 H05          1.3350     1.2100    -0.0280 h1         1 Y16       0.098700
     30 H06         -0.2650     0.5540    -1.6810 h1         1 Y16       0.105700
     31 H07         -1.4310     0.7000     1.1350 h1         1 Y16       0.047700
     32 H08          5.5260    -0.3610     2.3000 hc         1 Y16       0.035811
     33 H08A         6.0780    -1.9350     1.7240 hc         1 Y16       0.035811
     34 H08B         7.2200    -0.5980     1.8570 hc         1 Y16       0.035811
     35 H09          7.8890    -0.8870    -0.5590 hc         1 Y16       0.035811
     36 H09A         6.7640    -2.2380    -0.7100 hc         1 Y16       0.035811
     37 H09B         6.6690    -0.8820    -1.8360 hc         1 Y16       0.035811
     38 H10          7.0750     1.3600     0.2570 hc         1 Y16       0.035811
     39 H10A         5.8550     1.4080    -1.0110 hc         1 Y16       0.035811
     40 H10B         5.3860     1.6200     0.6770 hc         1 Y16       0.035811
     41 H12         -5.5030     0.8540    -0.6010 h1         1 Y16       0.067700
     42 H12A        -4.9310    -0.6650    -1.2660 h1         1 Y16       0.067700
     43 H14         -1.5750     2.9260     1.9020 h1         1 Y16       0.036033
     44 H14A        -1.1240     4.2150     0.7720 h1         1 Y16       0.036033
     45 H14B        -2.6570     3.3600     0.5640 h1         1 Y16       0.036033
     46 C14         -1.6080     3.2430     0.8540 c3         1 Y16       0.119700
     47 C03          3.4470    -0.1480    -0.5120 c2         1 Y16      -0.211200
     48 C02          4.4870    -0.9050    -0.1810 c2         1 Y16      -0.142200
@<TRIPOS>BOND
     1     1    17 1   
     2     1    18 1   
     3     1    20 1   
     4     2    10 1   
     5     2    21 1   
     6     3    19 1   
     7     3    22 1   
     8     3    23 1   
     9     4    12 1   
    10     4    24 1   
    11     5    11 1   
    12     5    25 1   
    13     6    17 2   
    14     7    19 2   
    15     8    13 1   
    16     8    46 1   
    17     9    14 1   
    18     9    15 1   
    19     9    16 1   
    20     9    48 1   
    21    10    11 1   
    22    10    28 1   
    23    10    47 1   
    24    11    12 1   
    25    11    29 1   
    26    12    13 1   
    27    12    30 1   
    28    13    17 1   
    29    13    31 1   
    30    14    32 1   
    31    14    33 1   
    32    14    34 1   
    33    15    35 1   
    34    15    36 1   
    35    15    37 1   
    36    16    38 1   
    37    16    39 1   
    38    16    40 1   
    39    18    19 1   
    40    18    41 1   
    41    18    42 1   
    42    26    48 1   
    43    27    47 1   
    44    43    46 1   
    45    44    46 1   
    46    45    46 1   
    47    47    48 2   
@<TRIPOS>SUBSTRUCTURE
     1 Y16         1 TEMP              0 ****  ****    0 ROOT
