@<TRIPOS>MOLECULE
Y16
   48    47     1     0     0
SMALL
No Charge or Current Charge


@<TRIPOS>ATOM
      1 N1          -3.7600     0.2060     0.0750 ns         1 Y16      -0.497900
      2 O1           1.6850    -2.0050     0.0340 oh         1 Y16      -0.708000
      3 N2          -7.1710    -1.2800     0.4150 nt         1 Y16      -0.602000
      4 O2          -0.8830    -1.1910    -0.2560 oh         1 Y16      -0.694000
      5 O3           0.8630     0.1370     1.6550 oh         1 Y16      -0.654000
      6 O4          -3.1580     1.3590    -1.7850 o          1 Y16      -0.588100
      7 O5          -5.4320    -1.2370     1.8100 o          1 Y16      -0.614100
      8 O6          -0.9660     2.5100    -0.3090 os         1 Y16      -0.430000
      9 C01          5.9920    -0.4960     0.0270 c3         1 Y16      -0.013800
     10 C04          2.0410    -0.6660    -0.3350 c3         1 Y16       0.179500
     11 C05          0.9770     0.3310     0.2270 c3         1 Y16       0.110300
     12 C06         -0.4150     0.1570    -0.4700 c3         1 Y16       0.149300
     13 C07         -1.4810     1.1850     0.0020 c3         1 Y16       0.066300
     14 C08          6.2110    -1.2380     1.3700 c3         1 Y16      -0.082433
     15 C09          7.0080    -1.0250    -1.0170 c3         1 Y16      -0.082433
     16 C10          6.2140     1.0250     0.2240 c3         1 Y16      -0.082433
     17 C11         -2.8510     0.9120    -0.6850 c          1 Y16       0.576100
     18 C12         -5.1360    -0.1300    -0.3540 c3         1 Y16       0.017000
     19 C13         -5.9050    -0.9270     0.7270 c          1 Y16       0.594100
     20 HN1         -3.4380    -0.1410     0.9730 hn         1 Y16       0.339500
     21 HO1          2.5080    -2.5400    -0.0630 ho         1 Y16       0.500000
     22 HN2         -7.5660    -1.0250    -0.4790 hn         1 Y16       0.319500
     23 HN2A        -7.7170    -1.8010     1.0860 hn         1 Y16       0.319500
     24 HO2         -0.0490    -1.7230    -0.1320 ho         1 Y16       0.497000
     25 HO3          1.0470    -0.8190     1.7960 ho         1 Y16       0.437000
     26 H02          4.5100    -1.2320    -1.4470 ha         1 Y16       0.165000
     27 H03          3.4850     0.0760     1.1510 ha         1 Y16       0.181000
     28 H04          2.0530    -0.5630    -1.4320 h1         1 Y16       0.090700
     29 H05          1.3320     1.3490     0.0120 h1         1 Y16       0.098700
     30 H06         -0.2640     0.3250    -1.5470 h1         1 Y16       0.105700
     31 H07         -1.6170     1.0790     1.0870 h1         1 Y16       0.047700
     32 H08          5.5310    -0.8650     2.1450 hc         1 Y16       0.035811
     33 H08A         6.0340    -2.3140     1.2530 hc         1 Y16       0.035811
     34 H08B         7.2380    -1.1000     1.7300 hc         1 Y16       0.035811
     35 H09          8.0390    -0.8580    -0.6820 hc         1 Y16       0.035811
     36 H09A         6.8770    -2.1020    -1.1800 hc         1 Y16       0.035811
     37 H09B         6.8790    -0.5180    -1.9810 hc         1 Y16       0.035811
     38 H10          7.2410     1.2320     0.5490 hc         1 Y16       0.035811
     39 H10A         6.0380     1.5690    -0.7120 hc         1 Y16       0.035811
     40 H10B         5.5340     1.4310     0.9830 hc         1 Y16       0.035811
     41 H12         -5.6920     0.7920    -0.5640 h1         1 Y16       0.067700
     42 H12A        -5.0990    -0.7350    -1.2690 h1         1 Y16       0.067700
     43 H14         -1.7480     3.5350     1.3470 h1         1 Y16       0.036033
     44 H14A        -1.2390     4.5620    -0.0100 h1         1 Y16       0.036033
     45 H14B        -2.7410     3.6230    -0.1290 h1         1 Y16       0.036033
     46 C14         -1.7120     3.6070     0.2520 c3         1 Y16       0.142900
     47 C03          3.4400    -0.4160     0.1780 c2         1 Y16      -0.261200
     48 C02          4.5720    -0.7450    -0.4710 c2         1 Y16      -0.192200
@<TRIPOS>BOND
     1     1    17 1   
     2     1    18 1   
     3     1    20 1   
     4     2    10 1   
     5     2    21 1   
     6     3    19 1   
     7     3    22 1   
     8     3    23 1   
     9     4    12 1   
    10     4    24 1   
    11     5    11 1   
    12     5    25 1   
    13     6    17 2   
    14     7    19 2   
    15     8    13 1   
    16     8    46 1   
    17     9    14 1   
    18     9    15 1   
    19     9    16 1   
    20     9    48 1   
    21    10    11 1   
    22    10    28 1   
    23    10    47 1   
    24    11    12 1   
    25    11    29 1   
    26    12    13 1   
    27    12    30 1   
    28    13    17 1   
    29    13    31 1   
    30    14    32 1   
    31    14    33 1   
    32    14    34 1   
    33    15    35 1   
    34    15    36 1   
    35    15    37 1   
    36    16    38 1   
    37    16    39 1   
    38    16    40 1   
    39    18    19 1   
    40    18    41 1   
    41    18    42 1   
    42    26    48 1   
    43    27    47 1   
    44    43    46 1   
    45    44    46 1   
    46    45    46 1   
    47    47    48 2   
@<TRIPOS>SUBSTRUCTURE
     1 Y16         1 TEMP              0 ****  ****    0 ROOT
