@<TRIPOS>MOLECULE
Y17
   44    47     1     0     0
SMALL
abcg2


@<TRIPOS>ATOM
      1 C01          6.2930    -0.6760    -1.3290 c3         1 Y17       0.094300
      2 C03          4.9870     0.3670     0.4840 c          1 Y17       0.564000
      3 C04          3.5270     0.4340     0.8790 c5         1 Y17      -0.171400
      4 C05          2.8860    -0.7520     0.1590 c5         1 Y17      -0.078700
      5 C06          1.4360    -0.5550    -0.2460 c3         1 Y17      -0.093400
      6 C07          0.5230    -0.3940     0.9640 c3         1 Y17       0.073600
      7 C09         -1.7270    -1.2870     0.2970 ca         1 Y17      -0.057200
      8 C10         -1.5080    -2.6590     0.3560 ca         1 Y17      -0.128000
      9 C11         -2.5640    -3.4880     0.0190 ca         1 Y17      -0.095000
     10 C12         -3.8040    -2.9620    -0.3690 ca         1 Y17      -0.134000
     11 C13         -4.0160    -1.5970    -0.4300 ca         1 Y17      -0.051000
     12 C14         -2.9660    -0.7380    -0.0970 ca         1 Y17      -0.042800
     13 C15         -2.7970     0.6820    -0.0500 cc         1 Y17      -0.218400
     14 C16         -1.5100     0.9240     0.3640 cd         1 Y17      -0.019300
     15 C17         -0.9770     2.2920     0.5800 c6         1 Y17      -0.037200
     16 C18         -1.7830     3.2440    -0.2960 c6         1 Y17       0.112000
     17 C20         -3.7520     1.7590    -0.2630 c          1 Y17       0.603200
     18 C22          3.8180    -0.9710    -1.0370 c5         1 Y17       0.100000
     19 N02          5.0890    -0.4600    -0.5740 n          1 Y17      -0.415800
     20 N08         -0.8670    -0.2470     0.5890 na         1 Y17      -0.074700
     21 N19         -3.2110     3.0020    -0.1760 ns         1 Y17      -0.506900
     22 O23          5.9080     0.9710     1.0120 o          1 Y17      -0.547000
     23 H013         6.2020    -0.2620    -2.3360 h1         1 Y17       0.044367
     24 H011         7.1320    -0.1970    -0.8310 h1         1 Y17       0.044367
     25 H012         6.5030    -1.7430    -1.4180 h1         1 Y17       0.044367
     26 H041         3.4090     0.4190     1.9620 hc         1 Y17       0.075700
     27 H042         3.1260     1.3880     0.5190 hc         1 Y17       0.075700
     28 H051         2.9580    -1.6300     0.8090 hc         1 Y17       0.063700
     29 H062         1.3500     0.3260    -0.8910 hc         1 Y17       0.058700
     30 H061         1.1020    -1.4120    -0.8360 hc         1 Y17       0.058700
     31 H071         0.6130    -1.2550     1.6290 h1         1 Y17       0.062200
     32 H072         0.8070     0.4760     1.5560 h1         1 Y17       0.062200
     33 H101        -0.5540    -3.0750     0.6550 ha         1 Y17       0.111000
     34 H111        -2.4280    -4.5610     0.0550 ha         1 Y17       0.111000
     35 H121        -4.6090    -3.6390    -0.6240 ha         1 Y17       0.114000
     36 H131        -4.9760    -1.1990    -0.7310 ha         1 Y17       0.138000
     37 H172        -1.0650     2.5620     1.6380 hc         1 Y17       0.064200
     38 H171         0.0790     2.3790     0.3170 hc         1 Y17       0.064200
     39 H182        -1.5870     4.2740    -0.0050 h1         1 Y17       0.043200
     40 H181        -1.4580     3.1300    -1.3360 h1         1 Y17       0.043200
     41 H221         3.8990    -2.0240    -1.3120 h1         1 Y17       0.048200
     42 H222         3.4800    -0.4220    -1.9240 h1         1 Y17       0.048200
     43 H191        -3.8220     3.7680    -0.4160 hn         1 Y17       0.313500
     44 O21         -4.9490     1.5710    -0.4600 o          1 Y17      -0.562000
@<TRIPOS>BOND
     1     1    19 1   
     2     1    23 1   
     3     1    24 1   
     4     1    25 1   
     5     2     3 1   
     6     2    19 1   
     7     2    22 2   
     8     3     4 1   
     9     3    26 1   
    10     3    27 1   
    11     4     5 1   
    12     4    18 1   
    13     4    28 1   
    14     5     6 1   
    15     5    29 1   
    16     5    30 1   
    17     6    20 1   
    18     6    31 1   
    19     6    32 1   
    20     7     8 ar  
    21     7    12 ar  
    22     7    20 1   
    23     8     9 ar  
    24     8    33 1   
    25     9    10 ar  
    26     9    34 1   
    27    10    11 ar  
    28    10    35 1   
    29    11    12 ar  
    30    11    36 1   
    31    12    13 1   
    32    13    14 2   
    33    13    17 1   
    34    14    15 1   
    35    14    20 1   
    36    15    16 1   
    37    15    37 1   
    38    15    38 1   
    39    16    21 1   
    40    16    39 1   
    41    16    40 1   
    42    17    21 1   
    43    17    44 2   
    44    18    19 1   
    45    18    41 1   
    46    18    42 1   
    47    21    43 1   
@<TRIPOS>SUBSTRUCTURE
     1 Y17         1 TEMP              0 ****  ****    0 ROOT
