@<TRIPOS>MOLECULE
Y17
   44    47     1     0     0
SMALL
No Charge or Current Charge


@<TRIPOS>ATOM
      1 C01          6.5370    -0.8730    -1.1510 c3         1 Y17       0.094300
      2 C03          5.1310     0.2240     0.5890 c          1 Y17       0.564000
      3 C04          3.6390     0.4920     0.7570 c5         1 Y17      -0.171400
      4 C05          2.9850    -0.7090     0.0170 c5         1 Y17      -0.078700
      5 C06          1.4920    -0.5250    -0.3470 c3         1 Y17      -0.093400
      6 C07          0.5600    -0.3880     0.8750 c3         1 Y17       0.073600
      7 C09         -1.7440    -1.2570     0.2590 ca         1 Y17      -0.057200
      8 C10         -1.5040    -2.6420     0.2880 ca         1 Y17      -0.128000
      9 C11         -2.5810    -3.5120     0.0130 ca         1 Y17      -0.095000
     10 C12         -3.8630    -2.9930    -0.2840 ca         1 Y17      -0.134000
     11 C13         -4.0790    -1.5990    -0.3110 ca         1 Y17      -0.051000
     12 C14         -2.9890    -0.7610    -0.0320 ca         1 Y17      -0.042800
     13 C15         -2.8880     0.6730     0.0050 cc         1 Y17      -0.218400
     14 C16         -1.5790     0.9830     0.3300 cd         1 Y17      -0.019300
     15 C17         -1.1140     2.3980     0.5530 c6         1 Y17      -0.037200
     16 C18         -2.0320     3.3950    -0.1950 c6         1 Y17       0.112000
     17 C20         -3.9300     1.7000    -0.2070 c          1 Y17       0.603200
     18 C22          3.9350    -0.8340    -1.2210 c5         1 Y17       0.100000
     19 N02          5.2290    -0.4140    -0.6470 n          1 Y17      -0.415800
     20 N08         -0.8510    -0.2150     0.4950 na         1 Y17      -0.074700
     21 N19         -3.4550     2.9940    -0.2170 ns         1 Y17      -0.506900
     22 O23          6.0340     0.3060     1.4100 o          1 Y17      -0.547000
     23 H013         6.4350    -1.2250    -2.1850 h1         1 Y17       0.044367
     24 H011         7.2570    -0.0450    -1.1250 h1         1 Y17       0.044367
     25 H012         6.9070    -1.6950    -0.5260 h1         1 Y17       0.044367
     26 H041         3.3660     0.6080     1.8110 hc         1 Y17       0.075700
     27 H042         3.4010     1.4090     0.2070 hc         1 Y17       0.075700
     28 H051         3.0620    -1.6150     0.6320 hc         1 Y17       0.063700
     29 H062         1.3710     0.3620    -0.9810 hc         1 Y17       0.058700
     30 H061         1.1570    -1.3800    -0.9460 hc         1 Y17       0.058700
     31 H071         0.6520    -1.2750     1.5140 h1         1 Y17       0.062200
     32 H072         0.8640     0.4800     1.4730 h1         1 Y17       0.062200
     33 H101        -0.5190    -3.0410     0.5140 ha         1 Y17       0.111000
     34 H111        -2.4230    -4.5880     0.0290 ha         1 Y17       0.111000
     35 H121        -4.6860    -3.6710    -0.4960 ha         1 Y17       0.114000
     36 H131        -5.0600    -1.1910    -0.5440 ha         1 Y17       0.138000
     37 H172        -1.1410     2.6220     1.6280 hc         1 Y17       0.064200
     38 H171        -0.0730     2.5350     0.2310 hc         1 Y17       0.064200
     39 H182        -1.9440     4.3960     0.2520 h1         1 Y17       0.043200
     40 H181        -1.6980     3.4690    -1.2400 h1         1 Y17       0.043200
     41 H221         3.9660    -1.8590    -1.6150 h1         1 Y17       0.048200
     42 H222         3.6400    -0.1550    -2.0320 h1         1 Y17       0.048200
     43 H191        -4.1540     3.7150    -0.3500 hn         1 Y17       0.313500
     44 O21         -5.1150     1.4650    -0.3770 o          1 Y17      -0.562000
@<TRIPOS>BOND
     1     1    19 1   
     2     1    23 1   
     3     1    24 1   
     4     1    25 1   
     5     2     3 1   
     6     2    19 1   
     7     2    22 2   
     8     3     4 1   
     9     3    26 1   
    10     3    27 1   
    11     4     5 1   
    12     4    18 1   
    13     4    28 1   
    14     5     6 1   
    15     5    29 1   
    16     5    30 1   
    17     6    20 1   
    18     6    31 1   
    19     6    32 1   
    20     7     8 ar  
    21     7    12 ar  
    22     7    20 1   
    23     8     9 ar  
    24     8    33 1   
    25     9    10 ar  
    26     9    34 1   
    27    10    11 ar  
    28    10    35 1   
    29    11    12 ar  
    30    11    36 1   
    31    12    13 1   
    32    13    14 2   
    33    13    17 1   
    34    14    15 1   
    35    14    20 1   
    36    15    16 1   
    37    15    37 1   
    38    15    38 1   
    39    16    21 1   
    40    16    39 1   
    41    16    40 1   
    42    17    21 1   
    43    17    44 2   
    44    18    19 1   
    45    18    41 1   
    46    18    42 1   
    47    21    43 1   
@<TRIPOS>SUBSTRUCTURE
     1 Y17         1 TEMP              0 ****  ****    0 ROOT
