@<TRIPOS>MOLECULE
Y18
   41    44     1     0     0
SMALL
No Charge or Current Charge


@<TRIPOS>ATOM
      1 C02         -3.5490    -0.8830    -0.7130 c          1 Y18       0.603200
      2 C04         -2.6770    -3.0910     0.2030 c6         1 Y18       0.113000
      3 C05         -1.2580    -2.4900     0.3590 c6         1 Y18      -0.036200
      4 C06         -2.3800    -0.2580    -0.0600 cc         1 Y18      -0.215400
      5 C07         -1.3300    -0.9890     0.4680 cd         1 Y18      -0.022300
      6 C10          2.0500    -0.6920     0.4650 c5         1 Y18      -0.103700
      7 C11          3.4680    -0.9940     1.0490 c5         1 Y18       0.102000
      8 C14          3.7080     0.0900    -1.0950 c          1 Y18       0.564000
      9 C15          2.3790     0.5030    -0.4760 c5         1 Y18      -0.164400
     10 C17         -0.8410     1.1870     0.7440 ca         1 Y18      -0.054200
     11 C18         -2.0580     1.1320     0.1120 ca         1 Y18      -0.043800
     12 C19         -2.7640     2.2890    -0.2500 ca         1 Y18      -0.050000
     13 C20         -2.1850     3.5380     0.0540 ca         1 Y18      -0.133000
     14 C21         -0.9320     3.6040     0.7050 ca         1 Y18      -0.092000
     15 C22         -0.2460     2.4220     1.0570 ca         1 Y18      -0.129000
     16 N03         -3.5900    -2.2570    -0.6060 ns         1 Y18      -0.508900
     17 N08         -0.3620    -0.0990     0.9820 na         1 Y18      -0.076700
     18 N12          4.3380    -0.6490    -0.0930 n          1 Y18      -0.419800
     19 O01         -4.4320    -0.2730    -1.2930 o          1 Y18      -0.561000
     20 O16          4.0800     0.1540    -2.2580 o          1 Y18      -0.542000
     21 H1          -2.6140    -4.0950    -0.2400 h1         1 Y18       0.043700
     22 H2          -3.1280    -3.1970     1.2000 h1         1 Y18       0.043700
     23 H3          -0.7580    -2.9350     1.2290 hc         1 Y18       0.062700
     24 H4          -0.6570    -2.7590    -0.5200 hc         1 Y18       0.062700
     25 H7           1.7070    -1.5480    -0.1290 hc         1 Y18       0.069700
     26 H8           3.6990    -0.3550     1.9120 h1         1 Y18       0.045200
     27 H9           3.5740    -2.0440     1.3530 h1         1 Y18       0.045200
     28 H10          6.3580    -0.5040    -0.7040 h1         1 Y18       0.043700
     29 H11          6.0480    -1.6830     0.6020 h1         1 Y18       0.043700
     30 H12          5.5630    -2.0640    -1.0760 h1         1 Y18       0.043700
     31 H13          1.6270     0.7290    -1.2390 hc         1 Y18       0.086700
     32 H14          2.5620     1.3900     0.1410 hc         1 Y18       0.086700
     33 H15         -3.7280     2.2290    -0.7500 ha         1 Y18       0.139000
     34 H16         -2.7060     4.4550    -0.2130 ha         1 Y18       0.115000
     35 H17         -0.4930     4.5730     0.9360 ha         1 Y18       0.112000
     36 H18          0.7170     2.4790     1.5570 ha         1 Y18       0.110000
     37 H19         -4.3780    -2.7070    -1.0560 hn         1 Y18       0.314500
     38 C09          0.9670    -0.4170     1.5340 c3         1 Y18       0.084600
     39 C13          5.6570    -1.2620    -0.3330 c3         1 Y18       0.094300
     40 H5           0.8670    -1.3050     2.1700 h1         1 Y18       0.062700
     41 H6           1.2940     0.4050     2.1830 h1         1 Y18       0.062700
@<TRIPOS>BOND
     1     1     4 1   
     2     1    16 1   
     3     1    19 2   
     4     2     3 1   
     5     2    16 1   
     6     2    21 1   
     7     2    22 1   
     8     3     5 1   
     9     3    23 1   
    10     3    24 1   
    11     4     5 2   
    12     4    11 1   
    13     5    17 1   
    14     6     7 1   
    15     6     9 1   
    16     6    25 1   
    17     6    38 1   
    18     7    18 1   
    19     7    26 1   
    20     7    27 1   
    21     8     9 1   
    22     8    18 1   
    23     8    20 2   
    24     9    31 1   
    25     9    32 1   
    26    10    11 ar  
    27    10    15 ar  
    28    10    17 1   
    29    11    12 ar  
    30    12    13 ar  
    31    12    33 1   
    32    13    14 ar  
    33    13    34 1   
    34    14    15 ar  
    35    14    35 1   
    36    15    36 1   
    37    16    37 1   
    38    17    38 1   
    39    18    39 1   
    40    28    39 1   
    41    29    39 1   
    42    30    39 1   
    43    38    40 1   
    44    38    41 1   
@<TRIPOS>SUBSTRUCTURE
     1 Y18         1 TEMP              0 ****  ****    0 ROOT
