@<TRIPOS>MOLECULE
Y18
   41    44     1     0     0
SMALL
bcc


@<TRIPOS>ATOM
      1 C02         -3.4700    -0.9110    -0.7290 c          1 Y18       0.745700
      2 C04         -2.5960    -2.9780     0.2980 c6         1 Y18       0.113000
      3 C05         -1.1780    -2.4210     0.3440 c6         1 Y18      -0.036200
      4 C06         -2.3540    -0.2440    -0.0740 cc         1 Y18      -0.215400
      5 C07         -1.2750    -0.9410     0.4110 cd         1 Y18      -0.022300
      6 C10          1.9520    -0.7760     0.3150 c5         1 Y18      -0.103700
      7 C11          3.3200    -1.1900     0.8640 c5         1 Y18       0.102000
      8 C14          3.7150     0.1050    -1.0460 c          1 Y18       0.706500
      9 C15          2.2880     0.3810    -0.6220 c5         1 Y18      -0.164400
     10 C17         -0.8090     1.2120     0.7240 ca         1 Y18      -0.054200
     11 C18         -2.0780     1.1460     0.1110 ca         1 Y18      -0.043800
     12 C19         -2.7660     2.3300    -0.1690 ca         1 Y18      -0.068000
     13 C20         -2.1810     3.5350     0.1720 ca         1 Y18      -0.151000
     14 C21         -0.9230     3.5810     0.7870 ca         1 Y18      -0.110000
     15 C22         -0.2210     2.4240     1.0730 ca         1 Y18      -0.147000
     16 N03         -3.4210    -2.2660    -0.6640 ns         1 Y18      -0.575900
     17 N08         -0.3440    -0.0800     0.8920 na         1 Y18      -0.047400
     18 N12          4.2310    -0.7960    -0.1880 n          1 Y18      -0.486800
     19 O01         -4.3570    -0.3090    -1.3270 o          1 Y18      -0.636500
     20 O16          4.3060     0.6280    -1.9770 o          1 Y18      -0.617500
     21 H1          -2.5710    -4.0270     0.0120 h1         1 Y18       0.043700
     22 H2          -3.0340    -2.9220     1.3000 h1         1 Y18       0.043700
     23 H3          -0.6580    -2.8440     1.2050 hc         1 Y18       0.062700
     24 H4          -0.6190    -2.7190    -0.5490 hc         1 Y18       0.062700
     25 H7           1.5660    -1.6060    -0.2830 hc         1 Y18       0.069700
     26 H8           3.5640    -0.6730     1.8010 h1         1 Y18       0.045200
     27 H9           3.3850    -2.2620     1.0540 h1         1 Y18       0.045200
     28 H10          6.1280    -0.7970    -1.0270 h1         1 Y18       0.043700
     29 H11          6.1050    -0.8690     0.7420 h1         1 Y18       0.043700
     30 H12          5.6800    -2.2990    -0.2070 h1         1 Y18       0.043700
     31 H13          1.6230     0.4680    -1.4800 hc         1 Y18       0.086700
     32 H14          2.2780     1.3430    -0.1000 hc         1 Y18       0.086700
     33 H15         -3.7370     2.2990    -0.6440 ha         1 Y18       0.157000
     34 H16         -2.7010     4.4610    -0.0380 ha         1 Y18       0.133000
     35 H17         -0.4900     4.5390     1.0430 ha         1 Y18       0.130000
     36 H18          0.7490     2.4770     1.5520 ha         1 Y18       0.128000
     37 H19         -4.2230    -2.7570    -1.0270 hn         1 Y18       0.314500
     38 C09          0.9540    -0.4540     1.4150 c3         1 Y18       0.055300
     39 C13          5.6070    -1.2120    -0.1680 c3         1 Y18       0.094300
     40 H5           0.8300    -1.3120     2.0780 h1         1 Y18       0.062700
     41 H6           1.3220     0.3620     2.0360 h1         1 Y18       0.062700
@<TRIPOS>BOND
     1     1     4 1   
     2     1    16 1   
     3     1    19 2   
     4     2     3 1   
     5     2    16 1   
     6     2    21 1   
     7     2    22 1   
     8     3     5 1   
     9     3    23 1   
    10     3    24 1   
    11     4     5 2   
    12     4    11 1   
    13     5    17 1   
    14     6     7 1   
    15     6     9 1   
    16     6    25 1   
    17     6    38 1   
    18     7    18 1   
    19     7    26 1   
    20     7    27 1   
    21     8     9 1   
    22     8    18 1   
    23     8    20 2   
    24     9    31 1   
    25     9    32 1   
    26    10    11 ar  
    27    10    15 ar  
    28    10    17 1   
    29    11    12 ar  
    30    12    13 ar  
    31    12    33 1   
    32    13    14 ar  
    33    13    34 1   
    34    14    15 ar  
    35    14    35 1   
    36    15    36 1   
    37    16    37 1   
    38    17    38 1   
    39    18    39 1   
    40    28    39 1   
    41    29    39 1   
    42    30    39 1   
    43    38    40 1   
    44    38    41 1   
@<TRIPOS>SUBSTRUCTURE
     1 Y18         1 TEMP              0 ****  ****    0 ROOT
