@<TRIPOS>MOLECULE
Y19
   43    43     1     0     0
SMALL
bcc


@<TRIPOS>ATOM
      1 O2           2.2150    -4.3990    -0.2220 o          1 Y19      -0.578500
      2 C2           2.2360    -3.1860    -0.2450 c          1 Y19       0.875900
      3 N3           3.4150    -2.5490    -0.6510 ns         1 Y19      -0.636500
      4 C4           3.6290    -1.2100    -0.6620 c          1 Y19       0.701500
      5 O4           4.6020    -0.6900    -1.1550 o          1 Y19      -0.588500
      6 N1           1.1500    -2.4290     0.0580 ne         1 Y19      -0.770100
      7 C6           1.2460    -1.1320     0.1100 c2         1 Y19       0.712200
      8 C5           2.5720    -0.4080     0.0770 c6         1 Y19      -0.093600
      9 N13          2.4810     0.9340    -0.3960 ns         1 Y19      -0.573900
     10 C14          3.1580     1.9560     0.2010 c          1 Y19       0.674100
     11 C15          3.1470     3.2440    -0.5860 c3         1 Y19      -0.155400
     12 C16          3.7860     4.4110     0.1430 c3         1 Y19      -0.077100
     13 O23          3.7060     1.8270     1.2790 o          1 Y19      -0.571100
     14 N7           0.1750    -0.3830     0.2600 nu         1 Y19      -0.805200
     15 C8          -1.1720    -0.9040     0.3660 c3         1 Y19       0.188800
     16 C9          -2.1640     0.1890    -0.0280 c3         1 Y19       0.096100
     17 O9          -1.9020     1.3770     0.6890 oh         1 Y19      -0.589800
     18 C10         -3.6170    -0.2830     0.1730 c3         1 Y19       0.081100
     19 O10         -3.7770    -1.6570    -0.0990 oh         1 Y19      -0.580800
     20 C11         -4.6330     0.5320    -0.6510 c3         1 Y19       0.117100
     21 O11         -4.3630     1.9110    -0.6830 oh         1 Y19      -0.562800
     22 C12         -6.0480     0.2440    -0.1730 c3         1 Y19       0.109400
     23 O12         -6.9620     0.8380    -1.0640 oh         1 Y19      -0.582800
     24 H3           4.1450    -3.1440    -1.0240 hn         1 Y19       0.339500
     25 H5           2.9160    -0.3720     1.1200 h1         1 Y19       0.136700
     26 H7           0.3020     0.6140     0.3700 hn         1 Y19       0.467800
     27 H13          2.1740     1.0670    -1.3490 hn         1 Y19       0.319500
     28 H151         3.6640     3.0570    -1.5330 hc         1 Y19       0.062700
     29 H152         2.1150     3.4790    -0.8610 hc         1 Y19       0.062700
     30 H161         3.7660     5.2980    -0.4890 hc         1 Y19       0.046033
     31 H162         3.2560     4.6490     1.0650 hc         1 Y19       0.046033
     32 H163         4.8260     4.2080     0.3950 hc         1 Y19       0.046033
     33 H8C1        -1.2580    -1.7670    -0.2900 h1         1 Y19       0.079700
     34 H8C2        -1.3610    -1.2490     1.3890 h1         1 Y19       0.079700
     35 H9          -1.9940     0.4390    -1.0810 h1         1 Y19       0.092700
     36 HA          -2.0380     1.2070     1.6290 ho         1 Y19       0.405000
     37 H10         -3.8460    -0.1740     1.2420 h1         1 Y19       0.070700
     38 HB          -3.6710    -1.8030    -1.0460 ho         1 Y19       0.412000
     39 H11         -4.5420     0.2010    -1.6940 h1         1 Y19       0.081700
     40 HC          -4.3060     2.2410     0.2200 ho         1 Y19       0.404000
     41 H121        -6.1910    -0.8410    -0.1110 h1         1 Y19       0.027200
     42 H122        -6.1620     0.6380     0.8490 h1         1 Y19       0.027200
     43 H12         -7.8500     0.6070    -0.7780 ho         1 Y19       0.407000
@<TRIPOS>BOND
     1     1     2 2   
     2     2     3 1   
     3     2     6 1   
     4     3     4 1   
     5     3    24 1   
     6     4     5 2   
     7     4     8 1   
     8     6     7 2   
     9     7     8 1   
    10     7    14 1   
    11     8     9 1   
    12     8    25 1   
    13     9    10 1   
    14     9    27 1   
    15    10    11 1   
    16    10    13 2   
    17    11    12 1   
    18    11    28 1   
    19    11    29 1   
    20    12    30 1   
    21    12    31 1   
    22    12    32 1   
    23    14    15 1   
    24    14    26 1   
    25    15    16 1   
    26    15    33 1   
    27    15    34 1   
    28    16    17 1   
    29    16    18 1   
    30    16    35 1   
    31    17    36 1   
    32    18    19 1   
    33    18    20 1   
    34    18    37 1   
    35    19    38 1   
    36    20    21 1   
    37    20    22 1   
    38    20    39 1   
    39    21    40 1   
    40    22    23 1   
    41    22    41 1   
    42    22    42 1   
    43    23    43 1   
@<TRIPOS>SUBSTRUCTURE
     1 Y19         1 TEMP              0 ****  ****    0 ROOT
