@<TRIPOS>MOLECULE
Y19
   43    43     1     0     0
SMALL
No Charge or Current Charge


@<TRIPOS>ATOM
      1 O2           2.0430    -4.3430     0.9090 o          1 Y19      -0.503000
      2 C2           2.2120    -3.1690     0.6520 c          1 Y19       0.733400
      3 N3           3.4520    -2.6290     0.6050 ns         1 Y19      -0.502500
      4 C4           3.8150    -1.3570     0.3260 c          1 Y19       0.559000
      5 O4           4.9760    -1.0750     0.0760 o          1 Y19      -0.513000
      6 N1           1.1900    -2.2810     0.3580 ne         1 Y19      -0.770100
      7 C6           1.3790    -1.0150     0.2280 c2         1 Y19       0.712200
      8 C5           2.7130    -0.3110     0.4170 c6         1 Y19      -0.093600
      9 N13          2.9890     0.8630    -0.4940 ns         1 Y19      -0.506900
     10 C14          2.3820     2.0990    -0.4630 c          1 Y19       0.607100
     11 C15          2.9320     3.1300    -1.4500 c3         1 Y19      -0.155400
     12 C16          3.7450     4.2290    -0.7320 c3         1 Y19      -0.077100
     13 O23          1.4340     2.3270     0.2720 o          1 Y19      -0.571100
     14 N7           0.2610    -0.2200     0.1270 nu         1 Y19      -0.860400
     15 C8          -1.0430    -0.6540    -0.4380 c3         1 Y19       0.188800
     16 C9          -2.1870     0.2820     0.0430 c3         1 Y19       0.119300
     17 O9          -2.0600     0.4350     1.4740 oh         1 Y19      -0.712000
     18 C10         -3.6110    -0.2490    -0.3390 c3         1 Y19       0.104300
     19 O10         -3.6890    -0.4360    -1.7700 oh         1 Y19      -0.703000
     20 C11         -4.7860     0.6680     0.1550 c3         1 Y19       0.140300
     21 O11         -4.6670     0.8600     1.5780 oh         1 Y19      -0.685000
     22 C12         -6.1950     0.0860    -0.1900 c3         1 Y19       0.132600
     23 O12         -7.2490     1.0100     0.1480 oh         1 Y19      -0.705000
     24 H3           4.2070    -3.2910     0.6940 hn         1 Y19       0.339500
     25 H5           2.7420     0.0370     1.4570 h1         1 Y19       0.136700
     26 H7           0.4910     0.7790     0.0790 hn         1 Y19       0.523000
     27 H13          3.7620     0.7760    -1.1490 hn         1 Y19       0.319500
     28 H151         3.5870     2.6410    -2.1810 hc         1 Y19       0.062700
     29 H152         2.0910     3.6070    -1.9660 hc         1 Y19       0.062700
     30 H161         4.1280     4.9590    -1.4560 hc         1 Y19       0.046033
     31 H162         3.1200     4.7640    -0.0050 hc         1 Y19       0.046033
     32 H163         4.6000     3.7950    -0.1980 hc         1 Y19       0.046033
     33 H8C1        -1.0010    -0.6610    -1.5360 h1         1 Y19       0.079700
     34 H8C2        -1.2840    -1.6770    -0.1150 h1         1 Y19       0.079700
     35 H9          -2.0420     1.2570    -0.4440 h1         1 Y19       0.092700
     36 HA          -1.1210     0.1890     1.6690 ho         1 Y19       0.504000
     37 H10         -3.7350    -1.2250     0.1520 h1         1 Y19       0.070700
     38 HB          -3.7070     0.4500    -2.2020 ho         1 Y19       0.511000
     39 H11         -4.6900     1.6370    -0.3550 h1         1 Y19       0.081700
     40 HC          -3.6870     0.7630     1.7560 ho         1 Y19       0.503000
     41 H121        -6.2390    -0.1410    -1.2640 h1         1 Y19       0.027200
     42 H122        -6.3310    -0.8630     0.3470 h1         1 Y19       0.027200
     43 H12         -8.1030     0.5440    -0.0100 ho         1 Y19       0.506000
@<TRIPOS>BOND
     1     1     2 2   
     2     2     3 1   
     3     2     6 1   
     4     3     4 1   
     5     3    24 1   
     6     4     5 2   
     7     4     8 1   
     8     6     7 2   
     9     7     8 1   
    10     7    14 1   
    11     8     9 1   
    12     8    25 1   
    13     9    10 1   
    14     9    27 1   
    15    10    11 1   
    16    10    13 2   
    17    11    12 1   
    18    11    28 1   
    19    11    29 1   
    20    12    30 1   
    21    12    31 1   
    22    12    32 1   
    23    14    15 1   
    24    14    26 1   
    25    15    16 1   
    26    15    33 1   
    27    15    34 1   
    28    16    17 1   
    29    16    18 1   
    30    16    35 1   
    31    17    36 1   
    32    18    19 1   
    33    18    20 1   
    34    18    37 1   
    35    19    38 1   
    36    20    21 1   
    37    20    22 1   
    38    20    39 1   
    39    21    40 1   
    40    22    23 1   
    41    22    41 1   
    42    22    42 1   
    43    23    43 1   
@<TRIPOS>SUBSTRUCTURE
     1 Y19         1 TEMP              0 ****  ****    0 ROOT
