@<TRIPOS>MOLECULE
Y1A
   38    39     1     0     0
SMALL
No Charge or Current Charge


@<TRIPOS>ATOM
      1 N1         -17.7120    15.7420    26.6440 n          1 Y1A      -0.422800
      2 C4         -18.6900    15.0990    27.5660 c6         1 Y1A       0.084500
      3 C5         -19.1630    13.6870    27.1510 c6         1 Y1A       0.090500
      4 C7         -21.6640    12.2720    26.0850 cc         1 Y1A       0.056500
      5 C8         -22.5680    11.2770    25.8110 cd         1 Y1A      -0.111000
      6 C10        -23.2900    12.4250    27.5900 cc         1 Y1A       0.139900
      7 N          -16.2640    17.5380    26.1330 ns         1 Y1A      -0.513900
      8 C          -14.3040    18.8030    25.3510 c3         1 Y1A      -0.110600
      9 O          -16.9490    17.1890    28.2680 o          1 Y1A      -0.639100
     10 C1         -15.4490    18.7270    26.3780 c3         1 Y1A       0.117700
     11 C11        -18.4800    14.0710    24.8310 c6         1 Y1A       0.090500
     12 C12        -17.9360    15.4790    25.1890 c6         1 Y1A       0.084500
     13 C2         -16.3220    19.9970    26.3710 c3         1 Y1A      -0.110600
     14 C3         -16.9700    16.8540    27.0940 c          1 Y1A       0.652100
     15 C9         -23.5930    11.3700    26.7740 cd         1 Y1A      -0.198000
     16 N2         -19.5680    13.5930    25.7220 n          1 Y1A      -0.407800
     17 O1         -20.2380    12.0150    24.1920 o          1 Y1A      -0.588100
     18 O2         -22.1100    13.0020    27.1730 os         1 Y1A      -0.232000
     19 H9         -18.2580    15.0320    28.5750 h1         1 Y1A       0.055450
     20 H8         -19.5710    15.7530    27.6370 h1         1 Y1A       0.055450
     21 H11        -18.3250    12.9930    27.3080 h1         1 Y1A       0.064200
     22 H10        -19.9480    13.3640    27.8400 h1         1 Y1A       0.064200
     23 H12        -22.5020    10.5590    24.9980 ha         1 Y1A       0.156000
     24 H14        -23.7930    12.8550    28.4460 h4         1 Y1A       0.055100
     25 H7         -16.3320    17.1910    25.1870 hn         1 Y1A       0.301500
     26 H2         -13.6820    17.9010    25.4000 hc         1 Y1A       0.041033
     27 H1         -14.6970    18.8980    24.3310 hc         1 Y1A       0.041033
     28 H          -13.6610    19.6680    25.5540 hc         1 Y1A       0.041033
     29 H3         -14.9940    18.6330    27.3740 h1         1 Y1A       0.080700
     30 H15        -17.6500    13.3510    24.8820 h1         1 Y1A       0.064200
     31 H16        -18.8270    14.0890    23.7880 h1         1 Y1A       0.064200
     32 H18        -17.0010    15.6200    24.6300 h1         1 Y1A       0.055450
     33 H17        -18.6510    16.2270    24.8180 h1         1 Y1A       0.055450
     34 H4         -17.1040    19.9330    27.1370 hc         1 Y1A       0.041033
     35 H5         -15.7140    20.8840    26.5810 hc         1 Y1A       0.041033
     36 H6         -16.8060    20.1330    25.3960 hc         1 Y1A       0.041033
     37 H13        -24.4680    10.7330    26.8550 ha         1 Y1A       0.147000
     38 C6         -20.4520    12.5820    25.2590 c          1 Y1A       0.549600
@<TRIPOS>BOND
     1     1     2 1   
     2     1    12 1   
     3     1    14 1   
     4     2     3 1   
     5     2    19 1   
     6     2    20 1   
     7     3    16 1   
     8     3    21 1   
     9     3    22 1   
    10     4     5 2   
    11     4    18 1   
    12     4    38 1   
    13     5    15 1   
    14     5    23 1   
    15     6    15 2   
    16     6    18 1   
    17     6    24 1   
    18     7    10 1   
    19     7    14 1   
    20     7    25 1   
    21     8    10 1   
    22     8    26 1   
    23     8    27 1   
    24     8    28 1   
    25     9    14 2   
    26    10    13 1   
    27    10    29 1   
    28    11    12 1   
    29    11    16 1   
    30    11    30 1   
    31    11    31 1   
    32    12    32 1   
    33    12    33 1   
    34    13    34 1   
    35    13    35 1   
    36    13    36 1   
    37    15    37 1   
    38    16    38 1   
    39    17    38 2   
@<TRIPOS>SUBSTRUCTURE
     1 Y1A         1 TEMP              0 ****  ****    0 ROOT
