@<TRIPOS>MOLECULE
Y1A
   38    39     1     0     0
SMALL
bcc


@<TRIPOS>ATOM
      1 N1         -17.7770    15.6300    26.5310 n          1 Y1A      -0.489800
      2 C4         -18.8080    15.1030    27.4090 c6         1 Y1A       0.084500
      3 C5         -19.0230    13.6240    27.1560 c6         1 Y1A       0.090500
      4 C7         -21.5320    12.4380    26.0310 cc         1 Y1A       0.166200
      5 C8         -22.4320    11.4240    25.9390 cd         1 Y1A      -0.194300
      6 C10        -23.1220    12.9010    27.4420 cc         1 Y1A       0.249600
      7 N          -16.3680    17.4180    26.0440 ns         1 Y1A      -0.580900
      8 C          -14.5500    18.8350    25.3020 c3         1 Y1A      -0.110600
      9 O          -16.9060    16.9180    28.1830 o          1 Y1A      -0.639100
     10 C1         -15.5720    18.5830    26.4000 c3         1 Y1A       0.117700
     11 C11        -18.2070    13.8360    24.9140 c6         1 Y1A       0.090500
     12 C12        -17.9610    15.3230    25.1250 c6         1 Y1A       0.084500
     13 C2         -16.4390    19.8140    26.6420 c3         1 Y1A      -0.110600
     14 C3         -17.0200    16.6850    26.9840 c          1 Y1A       0.786100
     15 C9         -23.4650    11.7210    26.8700 cd         1 Y1A      -0.281300
     16 N2         -19.3030    13.3900    25.7500 n          1 Y1A      -0.474800
     17 O1         -20.2880    12.2070    24.0910 o          1 Y1A      -0.588100
     18 O2         -21.9550    13.3430    26.9420 os         1 Y1A      -0.320800
     19 H9         -18.5080    15.2450    28.4430 h1         1 Y1A       0.055450
     20 H8         -19.7550    15.6360    27.2550 h1         1 Y1A       0.055450
     21 H11        -18.1130    13.0740    27.4170 h1         1 Y1A       0.064200
     22 H10        -19.8150    13.2510    27.7960 h1         1 Y1A       0.064200
     23 H12        -22.3630    10.5650    25.2910 ha         1 Y1A       0.174000
     24 H14        -23.5950    13.5220    28.1850 h4         1 Y1A       0.055100
     25 H7         -16.6940    17.4010    25.0910 hn         1 Y1A       0.301500
     26 H2         -13.9070    17.9680    25.1500 hc         1 Y1A       0.041033
     27 H1         -15.0400    19.0660    24.3520 hc         1 Y1A       0.041033
     28 H          -13.9170    19.6840    25.5590 hc         1 Y1A       0.041033
     29 H3         -15.0390    18.3410    27.3200 h1         1 Y1A       0.080700
     30 H15        -17.3020    13.2740    25.1670 h1         1 Y1A       0.064200
     31 H16        -18.4350    13.6550    23.8670 h1         1 Y1A       0.064200
     32 H18        -17.0620    15.5720    24.5620 h1         1 Y1A       0.055450
     33 H17        -18.7960    15.8940    24.6980 h1         1 Y1A       0.055450
     34 H4         -17.1690    19.6360    27.4310 hc         1 Y1A       0.041033
     35 H5         -15.8260    20.6660    26.9390 hc         1 Y1A       0.041033
     36 H6         -16.9790    20.0920    25.7340 hc         1 Y1A       0.041033
     37 H13        -24.3460    11.1380    27.0800 ha         1 Y1A       0.165000
     38 C6         -20.3160    12.6670    25.2250 c          1 Y1A       0.616600
@<TRIPOS>BOND
     1     1     2 1   
     2     1    12 1   
     3     1    14 1   
     4     2     3 1   
     5     2    19 1   
     6     2    20 1   
     7     3    16 1   
     8     3    21 1   
     9     3    22 1   
    10     4     5 2   
    11     4    18 1   
    12     4    38 1   
    13     5    15 1   
    14     5    23 1   
    15     6    15 2   
    16     6    18 1   
    17     6    24 1   
    18     7    10 1   
    19     7    14 1   
    20     7    25 1   
    21     8    10 1   
    22     8    26 1   
    23     8    27 1   
    24     8    28 1   
    25     9    14 2   
    26    10    13 1   
    27    10    29 1   
    28    11    12 1   
    29    11    16 1   
    30    11    30 1   
    31    11    31 1   
    32    12    32 1   
    33    12    33 1   
    34    13    34 1   
    35    13    35 1   
    36    13    36 1   
    37    15    37 1   
    38    16    38 1   
    39    17    38 2   
@<TRIPOS>SUBSTRUCTURE
     1 Y1A         1 TEMP              0 ****  ****    0 ROOT
