@<TRIPOS>MOLECULE
Y1C
   19    19     1     0     0
SMALL
abcg2


@<TRIPOS>ATOM
      1 N3         -25.6180    -4.1010   -29.7060 nc         1 Y1C      -0.460800
      2 C5         -24.7660    -3.9130   -27.4500 c3         1 Y1C       0.107600
      3 C6         -23.7550    -4.9520   -26.9700 c3         1 Y1C      -0.209400
      4 C7         -23.9540    -6.2720   -27.6850 c          1 Y1C       0.569100
      5 C11        -23.9080    -3.1760   -30.7300 cd         1 Y1C       0.267700
      6 C2         -25.1560    -3.7780   -30.8980 cd         1 Y1C       0.267700
      7 C9         -24.9520    -7.2120   -27.0760 c3         1 Y1C      -0.198100
      8 N10        -23.6390    -3.1430   -29.4400 nc         1 Y1C      -0.460800
      9 N4         -24.6840    -3.6970   -28.8830 na         1 Y1C       0.250600
     10 O8         -23.3450    -6.5250   -28.6980 o          1 Y1C      -0.496100
     11 BR1        -26.0750    -4.0920   -32.4650 br         1 Y1C      -0.074200
     12 BR12       -22.7750    -2.5130   -32.0240 br         1 Y1C      -0.074200
     13 H1         -24.5910    -2.9620   -26.9500 h1         1 Y1C       0.079700
     14 H2         -25.7890    -4.2200   -27.2430 h1         1 Y1C       0.079700
     15 H3         -22.7420    -4.5870   -27.1410 hc         1 Y1C       0.081200
     16 H4         -23.8990    -5.0680   -25.8940 hc         1 Y1C       0.081200
     17 H5         -25.1880    -8.0370   -27.7440 hc         1 Y1C       0.063367
     18 H6         -24.5400    -7.6130   -26.1470 hc         1 Y1C       0.063367
     19 H7         -25.8700    -6.6880   -26.8030 hc         1 Y1C       0.063367
@<TRIPOS>BOND
     1     1     6 2   
     2     1     9 1   
     3     2     3 1   
     4     2     9 1   
     5     2    13 1   
     6     2    14 1   
     7     3     4 1   
     8     3    15 1   
     9     3    16 1   
    10     4     7 1   
    11     4    10 2   
    12     5     6 1   
    13     5     8 2   
    14     5    12 1   
    15     6    11 1   
    16     7    17 1   
    17     7    18 1   
    18     7    19 1   
    19     8     9 1   
@<TRIPOS>SUBSTRUCTURE
     1 Y1C         1 TEMP              0 ****  ****    0 ROOT
