@<TRIPOS>MOLECULE
Y1C
   19    19     1     0     0
SMALL
No Charge or Current Charge


@<TRIPOS>ATOM
      1 N3         -25.5920    -4.1690   -29.8100 nc         1 Y1C      -0.460800
      2 C5         -24.7210    -3.9270   -27.4840 c3         1 Y1C       0.107600
      3 C6         -23.7420    -5.0140   -26.9740 c3         1 Y1C      -0.209400
      4 C7         -24.0000    -6.3630   -27.6500 c          1 Y1C       0.569100
      5 C11        -23.9320    -2.9980   -30.7670 cd         1 Y1C       0.267700
      6 C2         -25.1210    -3.7300   -30.9570 cd         1 Y1C       0.267700
      7 C9         -24.9820    -7.3020   -26.9540 c3         1 Y1C      -0.198100
      8 N10        -23.6080    -2.9490   -29.4940 nc         1 Y1C      -0.460800
      9 N4         -24.6420    -3.6770   -28.9360 na         1 Y1C       0.250600
     10 O8         -23.4530    -6.6730   -28.7000 o          1 Y1C      -0.496100
     11 Br1        -25.9720    -4.0690   -32.6090 br         1 Y1C      -0.074200
     12 Br12       -22.8990    -2.1780   -32.1190 br         1 Y1C      -0.074200
     13 H1         -24.5150    -2.9830   -26.9660 h1         1 Y1C       0.079700
     14 H2         -25.7510    -4.2150   -27.2380 h1         1 Y1C       0.079700
     15 H3         -22.7130    -4.6920   -27.1750 hc         1 Y1C       0.081200
     16 H4         -23.9140    -5.1100   -25.8960 hc         1 Y1C       0.081200
     17 H5         -25.1470    -8.2310   -27.5120 hc         1 Y1C       0.063367
     18 H6         -24.6220    -7.5020   -25.9380 hc         1 Y1C       0.063367
     19 H7         -25.9200    -6.7670   -26.7670 hc         1 Y1C       0.063367
@<TRIPOS>BOND
     1     1     6 2   
     2     1     9 1   
     3     2     3 1   
     4     2     9 1   
     5     2    13 1   
     6     2    14 1   
     7     3     4 1   
     8     3    15 1   
     9     3    16 1   
    10     4     7 1   
    11     4    10 2   
    12     5     6 1   
    13     5     8 2   
    14     5    12 1   
    15     6    11 1   
    16     7    17 1   
    17     7    18 1   
    18     7    19 1   
    19     8     9 1   
@<TRIPOS>SUBSTRUCTURE
     1 Y1C         1 TEMP              0 ****  ****    0 ROOT
