@<TRIPOS>MOLECULE
Y1D
   39    41     1     0     0
SMALL
No Charge or Current Charge


@<TRIPOS>ATOM
      1 N1         -18.2830    16.1970    26.5090 n          1 Y1D      -0.426800
      2 C4         -12.4030    19.0600    26.9170 ca         1 Y1D       0.190000
      3 C5         -12.9110    18.1980    27.8970 ca         1 Y1D      -0.189000
      4 C6         -14.1460    17.5640    27.6960 ca         1 Y1D       0.214000
      5 C7         -19.5070    15.8560    27.2830 c6         1 Y1D       0.095500
      6 C8         -20.0540    14.4380    26.9680 c6         1 Y1D       0.086000
      7 C10        -21.3820    11.9310    25.9500 cc         1 Y1D       0.054500
      8 C13        -21.7630    10.7340    27.7830 cc         1 Y1D       0.142900
      9 C15        -18.2680    15.7240    25.0940 c6         1 Y1D       0.095500
     10 C          -17.2260    16.9390    27.0820 c          1 Y1D       0.661100
     11 O          -17.2910    17.3600    28.2300 o          1 Y1D      -0.608100
     12 C1         -14.8880    17.7960    26.5110 ca         1 Y1D      -0.091000
     13 C11        -22.0860    10.8170    25.5720 cd         1 Y1D      -0.108000
     14 C12        -22.3300    10.0610    26.7360 cd         1 Y1D      -0.199000
     15 C14        -19.6200    15.1470    24.5960 c6         1 Y1D       0.086000
     16 C2         -14.3520    18.6450    25.5220 ca         1 Y1D      -0.093000
     17 C3         -13.1150    19.2820    25.7290 ca         1 Y1D      -0.155000
     18 F1         -14.5770    16.6850    28.6280 f          1 Y1D      -0.157000
     19 N2         -20.2000    14.1250    25.5150 n          1 Y1D      -0.402800
     20 O2         -21.1710    11.8870    27.3170 os         1 Y1D      -0.232000
     21 H3         -12.3450    18.0120    28.8040 ha         1 Y1D       0.151000
     22 H5         -19.3120    15.9190    28.3630 h1         1 Y1D       0.062200
     23 H4         -20.2840    16.5990    27.0520 h1         1 Y1D       0.062200
     24 H7         -19.3720    13.7010    27.4150 h1         1 Y1D       0.059450
     25 H6         -21.0310    14.3400    27.4620 h1         1 Y1D       0.059450
     26 H10        -21.7070    10.5220    28.8420 h4         1 Y1D       0.057100
     27 H14        -17.4990    14.9430    24.9970 h1         1 Y1D       0.062200
     28 H13        -17.9820    16.5520    24.4300 h1         1 Y1D       0.062200
     29 H          -16.2510    16.8400    25.3020 hn         1 Y1D       0.149000
     30 H8         -22.3940    10.5680    24.5600 ha         1 Y1D       0.157000
     31 H9         -22.8640     9.1180    26.7990 ha         1 Y1D       0.148000
     32 H12        -19.4620    14.7220    23.5950 h1         1 Y1D       0.059450
     33 H11        -20.3420    15.9680    24.4870 h1         1 Y1D       0.059450
     34 H1         -14.8990    18.8230    24.5980 ha         1 Y1D       0.121000
     35 H2         -12.7070    19.9450    24.9700 ha         1 Y1D       0.138000
     36 C9         -20.8990    12.9940    25.0010 c          1 Y1D       0.545600
     37 N          -16.1400    17.1760    26.2490 ns         1 Y1D      -0.158000
     38 F          -11.2130    19.6690    27.1100 f          1 Y1D      -0.172000
     39 O1         -21.0930    12.8960    23.7940 o          1 Y1D      -0.588100
@<TRIPOS>BOND
     1     1     5 1   
     2     1     9 1   
     3     1    10 1   
     4     2     3 ar  
     5     2    17 ar  
     6     2    38 1   
     7     3     4 ar  
     8     3    21 1   
     9     4    12 ar  
    10     4    18 1   
    11     5     6 1   
    12     5    22 1   
    13     5    23 1   
    14     6    19 1   
    15     6    24 1   
    16     6    25 1   
    17     7    13 2   
    18     7    20 1   
    19     7    36 1   
    20     8    14 2   
    21     8    20 1   
    22     8    26 1   
    23     9    15 1   
    24     9    27 1   
    25     9    28 1   
    26    10    11 2   
    27    10    37 1   
    28    12    16 ar  
    29    12    37 1   
    30    13    14 1   
    31    13    30 1   
    32    14    31 1   
    33    15    19 1   
    34    15    32 1   
    35    15    33 1   
    36    16    17 ar  
    37    16    34 1   
    38    17    35 1   
    39    19    36 1   
    40    29    37 1   
    41    36    39 2   
@<TRIPOS>SUBSTRUCTURE
     1 Y1D         1 TEMP              0 ****  ****    0 ROOT
