@<TRIPOS>MOLECULE
Y1D
   39    41     1     0     0
SMALL
abcg2


@<TRIPOS>ATOM
      1 N1         -17.0830    14.4780    26.7070 n          1 Y1D      -0.426800
      2 C4         -14.6400    20.3050    26.9930 ca         1 Y1D       0.190000
      3 C5         -14.1280    19.2230    27.6850 ca         1 Y1D      -0.189000
      4 C6         -14.6190    17.9710    27.3770 ca         1 Y1D       0.214000
      5 C7         -17.9750    13.7170    27.5700 c6         1 Y1D       0.095500
      6 C8         -18.7040    12.6810    26.7190 c6         1 Y1D       0.086000
      7 C10        -21.4700    13.3300    25.7760 cc         1 Y1D       0.054500
      8 C13        -22.6520    13.6350    27.5770 cc         1 Y1D       0.142900
      9 C15        -16.6880    13.7930    25.4940 c6         1 Y1D       0.095500
     10 C          -16.7150    15.7270    27.0840 c          1 Y1D       0.661100
     11 O          -16.9280    16.1620    28.2050 o          1 Y1D      -0.608100
     12 C1         -15.6170    17.7730    26.4300 ca         1 Y1D      -0.091000
     13 C11        -22.7500    13.0110    25.4510 cd         1 Y1D      -0.108000
     14 C12        -23.5200    13.2010    26.6310 cd         1 Y1D      -0.199000
     15 C14        -17.9020    13.5750    24.5940 c6         1 Y1D       0.086000
     16 C2         -16.1030    18.8920    25.7640 ca         1 Y1D      -0.093000
     17 C3         -15.6140    20.1630    26.0260 ca         1 Y1D      -0.155000
     18 F1         -14.0980    16.9120    28.0020 f          1 Y1D      -0.157000
     19 N2         -19.0500    13.2510    25.4310 n          1 Y1D      -0.402800
     20 O2         -21.4100    13.7170    27.0700 os         1 Y1D      -0.232000
     21 H3         -13.3530    19.3460    28.4310 ha         1 Y1D       0.151000
     22 H5         -17.4310    13.2120    28.3740 h1         1 Y1D       0.062200
     23 H4         -18.6970    14.3920    28.0270 h1         1 Y1D       0.062200
     24 H7         -18.0730    11.8050    26.5480 h1         1 Y1D       0.059450
     25 H6         -19.5760    12.3140    27.2480 h1         1 Y1D       0.059450
     26 H10        -22.7710    13.9180    28.6100 h4         1 Y1D       0.057100
     27 H14        -16.2280    12.8390    25.7640 h1         1 Y1D       0.062200
     28 H13        -15.9200    14.3420    24.9550 h1         1 Y1D       0.062200
     29 H          -16.3100    16.3340    25.1540 hn         1 Y1D       0.149000
     30 H8         -23.1000    12.6760    24.4890 ha         1 Y1D       0.157000
     31 H9         -24.5780    13.0410    26.7580 ha         1 Y1D       0.148000
     32 H12        -17.6890    12.7810    23.8720 h1         1 Y1D       0.059450
     33 H11        -18.1190    14.4830    24.0320 h1         1 Y1D       0.059450
     34 H1         -16.8800    18.7620    25.0210 ha         1 Y1D       0.121000
     35 H2         -15.9980    21.0250    25.4960 ha         1 Y1D       0.138000
     36 C9         -20.2830    13.3830    24.9010 c          1 Y1D       0.545600
     37 N          -16.0710    16.4830    26.1220 ns         1 Y1D      -0.158000
     38 F          -14.1660    21.5260    27.2750 f          1 Y1D      -0.172000
     39 O1         -20.4580    13.5740    23.7030 o          1 Y1D      -0.588100
@<TRIPOS>BOND
     1     1     5 1   
     2     1     9 1   
     3     1    10 1   
     4     2     3 ar  
     5     2    17 ar  
     6     2    38 1   
     7     3     4 ar  
     8     3    21 1   
     9     4    12 ar  
    10     4    18 1   
    11     5     6 1   
    12     5    22 1   
    13     5    23 1   
    14     6    19 1   
    15     6    24 1   
    16     6    25 1   
    17     7    13 2   
    18     7    20 1   
    19     7    36 1   
    20     8    14 2   
    21     8    20 1   
    22     8    26 1   
    23     9    15 1   
    24     9    27 1   
    25     9    28 1   
    26    10    11 2   
    27    10    37 1   
    28    12    16 ar  
    29    12    37 1   
    30    13    14 1   
    31    13    30 1   
    32    14    31 1   
    33    15    19 1   
    34    15    32 1   
    35    15    33 1   
    36    16    17 ar  
    37    16    34 1   
    38    17    35 1   
    39    19    36 1   
    40    29    37 1   
    41    36    39 2   
@<TRIPOS>SUBSTRUCTURE
     1 Y1D         1 TEMP              0 ****  ****    0 ROOT
