@<TRIPOS>MOLECULE
Y1E
   62    65     1     0     0
SMALL
No Charge or Current Charge


@<TRIPOS>ATOM
      1 C10        -24.5250    -4.3360    19.7360 ca         1 Y1E      -0.095000
      2 C13        -26.4410    -3.6210    21.6600 ca         1 Y1E      -0.111000
      3 C17        -21.7530    -0.7380    16.6780 ca         1 Y1E       0.345900
      4 C20        -21.7240    -1.4210    19.3350 ca         1 Y1E      -0.167000
      5 C21        -22.9640    -1.1780    18.7250 ca         1 Y1E      -0.027000
      6 C22        -24.9740     1.3350    15.1040 ca         1 Y1E      -0.048000
      7 C24        -24.4090     1.6400    12.7430 ca         1 Y1E      -0.093000
      8 C26        -25.8300     3.0730    11.1990 cp         1 Y1E      -0.038000
      9 C28        -25.0770     3.9940     9.0460 ca         1 Y1E      -0.111000
     10 O01        -24.8090     1.2420    18.7050 o          1 Y1E      -0.573100
     11 N03        -24.6040     0.8940    16.4280 n          1 Y1E      -0.225400
     12 C04        -24.2950    -0.5610    16.5940 c3         1 Y1E       0.095000
     13 N06        -25.2280    -2.7590    17.2240 ns         1 Y1E      -0.507900
     14 C07        -26.1250    -3.7360    17.8350 c3         1 Y1E       0.159000
     15 C08        -26.0540    -5.0780    17.0830 c3         1 Y1E      -0.098100
     16 C09        -25.7930    -3.8770    19.3190 ca         1 Y1E      -0.108300
     17 C11        -24.2200    -4.4380    21.1040 ca         1 Y1E      -0.111000
     18 C12        -25.1780    -4.0820    22.0670 ca         1 Y1E      -0.104000
     19 C14        -26.7470    -3.5160    20.2920 ca         1 Y1E      -0.095000
     20 O15        -26.5900    -0.9430    17.3970 o          1 Y1E      -0.579100
     21 C16        -22.9850    -0.8290    17.3560 ca         1 Y1E      -0.152300
     22 N18        -20.5560    -0.9710    17.2650 nb         1 Y1E      -0.669000
     23 C19        -20.5500    -1.3070    18.5750 ca         1 Y1E       0.340900
     24 C23        -24.1240     1.0920    14.0050 ca         1 Y1E      -0.113500
     25 C25        -25.5270     2.4860    12.5440 cp         1 Y1E      -0.033000
     26 C27        -24.7910     3.4430    10.3070 ca         1 Y1E      -0.098500
     27 C29        -26.4100     4.1880     8.6490 ca         1 Y1E      -0.105000
     28 C30        -27.4550     3.8300     9.5140 ca         1 Y1E      -0.111000
     29 C31        -27.1680     3.2800    10.7760 ca         1 Y1E      -0.098500
     30 C32        -26.3340     2.7780    13.6690 ca         1 Y1E      -0.093000
     31 C33        -26.0480     2.2310    14.9320 ca         1 Y1E      -0.113500
     32 C34        -24.4610     3.2130    17.4910 ce         1 Y1E      -0.267200
     33 C35        -24.0010     3.9440    16.4420 c2         1 Y1E      -0.264000
     34 H1         -23.7700    -4.6070    19.0010 ha         1 Y1E       0.111500
     35 H2         -27.1830    -3.3420    22.4050 ha         1 Y1E       0.113000
     36 H3         -21.7190    -0.4740    15.6220 h4         1 Y1E       0.014100
     37 H4         -21.6670    -1.6930    20.3850 ha         1 Y1E       0.127000
     38 H5         -23.8800    -1.2590    19.3080 ha         1 Y1E       0.143000
     39 H6         -23.7520     1.4030    11.9090 ha         1 Y1E       0.119500
     40 H7         -24.2650     4.2740     8.3780 ha         1 Y1E       0.114000
     41 H8         -24.1360    -0.9720    15.5900 h1         1 Y1E       0.069700
     42 H9         -24.2990    -3.0650    16.9640 hn         1 Y1E       0.311500
     43 H10        -27.1560    -3.3690    17.7400 h1         1 Y1E       0.081700
     44 H11        -26.7320    -5.8070    17.5410 hc         1 Y1E       0.045033
     45 H12        -26.3520    -4.9470    16.0360 hc         1 Y1E       0.045033
     46 H13        -25.0390    -5.4920    17.1020 hc         1 Y1E       0.045033
     47 H14        -23.2400    -4.7910    21.4170 ha         1 Y1E       0.113000
     48 H15        -24.9420    -4.1610    23.1260 ha         1 Y1E       0.113000
     49 H16        -27.7260    -3.1510    19.9900 ha         1 Y1E       0.111500
     50 H17        -19.5760    -1.4900    19.0260 h4         1 Y1E       0.020100
     51 H18        -23.2350     0.4790    14.1190 ha         1 Y1E       0.128500
     52 H19        -23.7520     3.3150    10.5990 ha         1 Y1E       0.114000
     53 H20        -26.6320     4.6140     7.6730 ha         1 Y1E       0.114000
     54 H21        -28.4890     3.9760     9.2080 ha         1 Y1E       0.114000
     55 H22        -27.9930     2.9970    11.4250 ha         1 Y1E       0.114000
     56 H23        -27.1800     3.4540    13.5700 ha         1 Y1E       0.119500
     57 H24        -26.6810     2.4940    15.7770 ha         1 Y1E       0.128500
     58 H25        -24.6930     3.7260    18.4230 ha         1 Y1E       0.199000
     59 H26        -23.8940     5.0280    16.5150 ha         1 Y1E       0.170000
     60 H27        -23.6890     3.5060    15.4950 ha         1 Y1E       0.170000
     61 C05        -25.4930    -1.4090    17.1120 c          1 Y1E       0.587100
     62 C02        -24.6490     1.7220    17.5900 c          1 Y1E       0.612300
@<TRIPOS>BOND
     1     1    16 ar  
     2     1    17 ar  
     3     1    34 1   
     4     2    18 ar  
     5     2    19 ar  
     6     2    35 1   
     7     3    21 ar  
     8     3    22 ar  
     9     3    36 1   
    10     4     5 ar  
    11     4    23 ar  
    12     4    37 1   
    13     5    21 ar  
    14     5    38 1   
    15     6    11 1   
    16     6    24 ar  
    17     6    31 ar  
    18     7    24 ar  
    19     7    25 ar  
    20     7    39 1   
    21     8    25 1   
    22     8    26 ar  
    23     8    29 ar  
    24     9    26 ar  
    25     9    27 ar  
    26     9    40 1   
    27    10    62 2   
    28    11    12 1   
    29    11    62 1   
    30    12    21 1   
    31    12    41 1   
    32    12    61 1   
    33    13    14 1   
    34    13    42 1   
    35    13    61 1   
    36    14    15 1   
    37    14    16 1   
    38    14    43 1   
    39    15    44 1   
    40    15    45 1   
    41    15    46 1   
    42    16    19 ar  
    43    17    18 ar  
    44    17    47 1   
    45    18    48 1   
    46    19    49 1   
    47    20    61 2   
    48    22    23 ar  
    49    23    50 1   
    50    24    51 1   
    51    25    30 ar  
    52    26    52 1   
    53    27    28 ar  
    54    27    53 1   
    55    28    29 ar  
    56    28    54 1   
    57    29    55 1   
    58    30    31 ar  
    59    30    56 1   
    60    31    57 1   
    61    32    33 2   
    62    32    58 1   
    63    32    62 1   
    64    33    59 1   
    65    33    60 1   
@<TRIPOS>SUBSTRUCTURE
     1 Y1E         1 TEMP              0 ****  ****    0 ROOT
