@<TRIPOS>MOLECULE
Y1E
   62    65     1     0     0
SMALL
abcg2


@<TRIPOS>ATOM
      1 C10        -24.8340    -4.0420    19.5310 ca         1 Y1E      -0.095000
      2 C13        -27.0040    -3.5380    21.1910 ca         1 Y1E      -0.111000
      3 C17        -21.4110    -0.6370    16.9150 ca         1 Y1E       0.345900
      4 C20        -21.5680    -1.6080    19.4410 ca         1 Y1E      -0.167000
      5 C21        -22.7430    -1.2870    18.7780 ca         1 Y1E      -0.027000
      6 C22        -24.5860     1.4610    15.2400 ca         1 Y1E      -0.048000
      7 C24        -24.2510     1.7730    12.8770 ca         1 Y1E      -0.093000
      8 C26        -26.0370     2.7610    11.4200 cp         1 Y1E      -0.038000
      9 C28        -25.6470     3.8000     9.2630 ca         1 Y1E      -0.111000
     10 O01        -24.0510     1.3740    18.7600 o          1 Y1E      -0.573100
     11 N03        -24.1020     1.0180    16.5130 n          1 Y1E      -0.225400
     12 C04        -23.8910    -0.4260    16.6520 c3         1 Y1E       0.095000
     13 N06        -25.1160    -2.4890    16.9760 ns         1 Y1E      -0.507900
     14 C07        -26.1640    -3.3800    17.4760 c3         1 Y1E       0.159000
     15 C08        -26.1290    -4.6900    16.6950 c3         1 Y1E      -0.098100
     16 C09        -26.0340    -3.5940    18.9740 ca         1 Y1E      -0.108300
     17 C11        -24.7180    -4.2310    20.9020 ca         1 Y1E      -0.111000
     18 C12        -25.8040    -3.9790    21.7370 ca         1 Y1E      -0.104000
     19 C14        -27.1140    -3.3450    19.8160 ca         1 Y1E      -0.095000
     20 O15        -26.1810    -0.5490    17.4660 o          1 Y1E      -0.579100
     21 C16        -22.6730    -0.7880    17.4820 ca         1 Y1E      -0.152300
     22 N18        -20.2700    -0.9310    17.5440 nb         1 Y1E      -0.669000
     23 C19        -20.3580    -1.4100    18.7880 ca         1 Y1E       0.340900
     24 C23        -23.7780     1.3560    14.1120 ca         1 Y1E      -0.113500
     25 C25        -25.5380     2.3070    12.7370 cp         1 Y1E      -0.033000
     26 C27        -25.1780     3.3700    10.4980 ca         1 Y1E      -0.098500
     27 C29        -26.9860     3.6290     8.9230 ca         1 Y1E      -0.105000
     28 C30        -27.8510     3.0240     9.8300 ca         1 Y1E      -0.111000
     29 C31        -27.3810     2.5950    11.0660 ca         1 Y1E      -0.098500
     30 C32        -26.3390     2.3960    13.8810 ca         1 Y1E      -0.093000
     31 C33        -25.8740     1.9690    15.1160 ca         1 Y1E      -0.113500
     32 C34        -24.1170     3.3030    17.4330 ce         1 Y1E      -0.267200
     33 C35        -23.3460     3.9670    16.5800 c2         1 Y1E      -0.264000
     34 H1         -23.9810    -4.2310    18.8910 ha         1 Y1E       0.111500
     35 H2         -27.8520    -3.3360    21.8330 ha         1 Y1E       0.113000
     36 H3         -21.3190    -0.2580    15.9020 h4         1 Y1E       0.014100
     37 H4         -21.5880    -2.0010    20.4490 ha         1 Y1E       0.127000
     38 H5         -23.6970    -1.4200    19.2670 ha         1 Y1E       0.143000
     39 H6         -23.6130     1.6730    12.0080 ha         1 Y1E       0.119500
     40 H7         -24.9670     4.2760     8.5680 ha         1 Y1E       0.114000
     41 H8         -23.6890    -0.7780    15.6400 h1         1 Y1E       0.069700
     42 H9         -24.2400    -2.9080    16.6990 hn         1 Y1E       0.311500
     43 H10        -27.1120    -2.8770    17.2900 h1         1 Y1E       0.081700
     44 H11        -26.9160    -5.3550    17.0500 hc         1 Y1E       0.045033
     45 H12        -26.2800    -4.5030    15.6310 hc         1 Y1E       0.045033
     46 H13        -25.1700    -5.1960    16.8280 hc         1 Y1E       0.045033
     47 H14        -23.7790    -4.5710    21.3200 ha         1 Y1E       0.113000
     48 H15        -25.7120    -4.1230    22.8070 ha         1 Y1E       0.113000
     49 H16        -28.0470    -2.9900    19.3930 ha         1 Y1E       0.111500
     50 H17        -19.4220    -1.6480    19.2820 h4         1 Y1E       0.020100
     51 H18        -22.7760     0.9570    14.2030 ha         1 Y1E       0.128500
     52 H19        -24.1390     3.5270    10.7570 ha         1 Y1E       0.114000
     53 H20        -27.3520     3.9640     7.9600 ha         1 Y1E       0.114000
     54 H21        -28.8930     2.8790     9.5730 ha         1 Y1E       0.114000
     55 H22        -28.0610     2.1100    11.7540 ha         1 Y1E       0.114000
     56 H23        -27.3350     2.8120    13.8090 ha         1 Y1E       0.119500
     57 H24        -26.5070     2.0380    15.9900 ha         1 Y1E       0.128500
     58 H25        -24.7110     3.8290    18.1710 ha         1 Y1E       0.199000
     59 H26        -23.3120     5.0500    16.5900 ha         1 Y1E       0.170000
     60 H27        -22.7210     3.4620    15.8550 ha         1 Y1E       0.170000
     61 C05        -25.1830    -1.1500    17.0900 c          1 Y1E       0.587100
     62 C02        -24.1130     1.8230    17.6190 c          1 Y1E       0.612300
@<TRIPOS>BOND
     1     1    16 ar  
     2     1    17 ar  
     3     1    34 1   
     4     2    18 ar  
     5     2    19 ar  
     6     2    35 1   
     7     3    21 ar  
     8     3    22 ar  
     9     3    36 1   
    10     4     5 ar  
    11     4    23 ar  
    12     4    37 1   
    13     5    21 ar  
    14     5    38 1   
    15     6    11 1   
    16     6    24 ar  
    17     6    31 ar  
    18     7    24 ar  
    19     7    25 ar  
    20     7    39 1   
    21     8    25 1   
    22     8    26 ar  
    23     8    29 ar  
    24     9    26 ar  
    25     9    27 ar  
    26     9    40 1   
    27    10    62 2   
    28    11    12 1   
    29    11    62 1   
    30    12    21 1   
    31    12    41 1   
    32    12    61 1   
    33    13    14 1   
    34    13    42 1   
    35    13    61 1   
    36    14    15 1   
    37    14    16 1   
    38    14    43 1   
    39    15    44 1   
    40    15    45 1   
    41    15    46 1   
    42    16    19 ar  
    43    17    18 ar  
    44    17    47 1   
    45    18    48 1   
    46    19    49 1   
    47    20    61 2   
    48    22    23 ar  
    49    23    50 1   
    50    24    51 1   
    51    25    30 ar  
    52    26    52 1   
    53    27    28 ar  
    54    27    53 1   
    55    28    29 ar  
    56    28    54 1   
    57    29    55 1   
    58    30    31 ar  
    59    30    56 1   
    60    31    57 1   
    61    32    33 2   
    62    32    58 1   
    63    32    62 1   
    64    33    59 1   
    65    33    60 1   
@<TRIPOS>SUBSTRUCTURE
     1 Y1E         1 TEMP              0 ****  ****    0 ROOT
