@<TRIPOS>MOLECULE
Y1G
   30    32     1     0     0
SMALL
No Charge or Current Charge


@<TRIPOS>ATOM
      1 C1          18.1280   -12.6500     4.7550 ca         1 Y1G      -0.135000
      2 C2          18.0090   -11.9370     3.5410 ca         1 Y1G      -0.034000
      3 C3          18.8590   -10.8380     3.3370 ca         1 Y1G      -0.088800
      4 C4          18.9720    -9.9210     2.2090 cc         1 Y1G      -0.004400
      5 C5          18.1740   -10.0350     0.9280 c3         1 Y1G      -0.179200
      6 C6          16.7870    -9.3810     1.0480 c          1 Y1G       0.724000
      7 C7          19.9980    -9.0480     2.6060 cd         1 Y1G       0.034900
      8 C8          20.6030    -7.8290     2.0040 ca         1 Y1G      -0.009800
      9 C           19.0780   -12.2590     5.7300 ca         1 Y1G      -0.004900
     10 O           15.8790   -10.0470     1.5230 o          1 Y1G      -0.720500
     11 C10         22.3840    -6.1340     2.0320 ca         1 Y1G      -0.126000
     12 C11         21.8200    -5.5020     0.9150 ca         1 Y1G      -0.121000
     13 C12         20.6490    -6.0200     0.3450 ca         1 Y1G      -0.126000
     14 C13         20.0450    -7.1700     0.8850 ca         1 Y1G      -0.085000
     15 C14         19.7730   -10.4710     4.2930 ca         1 Y1G       0.062100
     16 C15         19.9200   -11.1510     5.5060 ca         1 Y1G      -0.097000
     17 C9          21.7800    -7.2820     2.5730 ca         1 Y1G      -0.085000
     18 O1          16.6780    -8.1960     0.7740 o          1 Y1G      -0.720500
     19 O2          20.4600    -9.3900     3.8560 os         1 Y1G      -0.184200
     20 Br          19.2180   -13.2410     7.3640 br         1 Y1G      -0.141100
     21 H1          17.4830   -13.5060     4.9410 ha         1 Y1G       0.117000
     22 H2          17.2790   -12.2320     2.7910 ha         1 Y1G       0.136000
     23 H3          18.0450   -11.1100     0.7570 hc         1 Y1G       0.038700
     24 H4          18.7580    -9.5730     0.1280 hc         1 Y1G       0.038700
     25 H5          23.2900    -5.7350     2.4810 ha         1 Y1G       0.103000
     26 H6          22.2860    -4.6130     0.4960 ha         1 Y1G       0.096000
     27 H7          20.2010    -5.5260    -0.5150 ha         1 Y1G       0.103000
     28 H8          19.1260    -7.5150     0.4340 ha         1 Y1G       0.140000
     29 H9          20.6550   -10.8350     6.2420 ha         1 Y1G       0.130000
     30 H10         22.2460    -7.7520     3.4360 ha         1 Y1G       0.140000
@<TRIPOS>BOND
     1     1     2 ar  
     2     1     9 ar  
     3     1    21 1   
     4     2     3 ar  
     5     2    22 1   
     6     3     4 1   
     7     3    15 ar  
     8     4     5 1   
     9     4     7 2   
    10     5     6 1   
    11     5    23 1   
    12     5    24 1   
    13     6    10 1   
    14     6    18 1   
    15     7     8 1   
    16     7    19 1   
    17     8    14 ar  
    18     8    17 ar  
    19     9    16 ar  
    20     9    20 1   
    21    11    12 ar  
    22    11    17 ar  
    23    11    25 1   
    24    12    13 ar  
    25    12    26 1   
    26    13    14 ar  
    27    13    27 1   
    28    14    28 1   
    29    15    16 ar  
    30    15    19 1   
    31    16    29 1   
    32    17    30 1   
@<TRIPOS>SUBSTRUCTURE
     1 Y1G         1 TEMP              0 ****  ****    0 ROOT
