@<TRIPOS>MOLECULE
Y1G
   30    32     1     0     0
SMALL
abcg2


@<TRIPOS>ATOM
      1 C1          18.1710   -12.5770     4.8450 ca         1 Y1G      -0.135000
      2 C2          18.0650   -11.9310     3.6250 ca         1 Y1G      -0.034000
      3 C3          18.8330   -10.7900     3.3980 ca         1 Y1G      -0.088800
      4 C4          19.0090    -9.8880     2.2920 cc         1 Y1G      -0.004400
      5 C5          18.3700   -10.0270     0.9580 c3         1 Y1G      -0.179200
      6 C6          16.9290    -9.4580     0.8360 c          1 Y1G       0.724000
      7 C7          19.9190    -8.9760     2.7230 cd         1 Y1G       0.034900
      8 C8          20.5410    -7.8300     2.0750 ca         1 Y1G      -0.009800
      9 C           19.0380   -12.0860     5.8270 ca         1 Y1G      -0.004900
     10 O           16.2680    -9.8930    -0.1240 o          1 Y1G      -0.720500
     11 C10         22.4730    -6.4370     1.6750 ca         1 Y1G      -0.126000
     12 C11         21.7400    -5.6610     0.7860 ca         1 Y1G      -0.121000
     13 C12         20.4050    -5.9620     0.5500 ca         1 Y1G      -0.126000
     14 C13         19.8050    -7.0340     1.1940 ca         1 Y1G      -0.085000
     15 C14         19.6800   -10.3370     4.4100 ca         1 Y1G       0.062100
     16 C15         19.8130   -10.9530     5.6400 ca         1 Y1G      -0.097000
     17 C9          21.8810    -7.5120     2.3180 ca         1 Y1G      -0.085000
     18 O1          16.5790    -8.6060     1.6730 o          1 Y1G      -0.720500
     19 O2          20.3350    -9.2360     4.0030 os         1 Y1G      -0.184200
     20 BR          19.1640   -13.0050     7.4740 br         1 Y1G      -0.141100
     21 H1          17.5800   -13.4640     5.0340 ha         1 Y1G       0.117000
     22 H2          17.3950   -12.3160     2.8670 ha         1 Y1G       0.136000
     23 H3          18.3600   -11.0830     0.6740 hc         1 Y1G       0.038700
     24 H4          18.9830    -9.5260     0.2010 hc         1 Y1G       0.038700
     25 H5          23.5130    -6.2070     1.8670 ha         1 Y1G       0.103000
     26 H6          22.2050    -4.8220     0.2850 ha         1 Y1G       0.096000
     27 H7          19.8220    -5.3520    -0.1280 ha         1 Y1G       0.103000
     28 H8          18.7540    -7.2390     1.0410 ha         1 Y1G       0.140000
     29 H9          20.4840   -10.5730     6.3990 ha         1 Y1G       0.130000
     30 H10         22.4700    -8.1150     2.9970 ha         1 Y1G       0.140000
@<TRIPOS>BOND
     1     1     2 ar  
     2     1     9 ar  
     3     1    21 1   
     4     2     3 ar  
     5     2    22 1   
     6     3     4 1   
     7     3    15 ar  
     8     4     5 1   
     9     4     7 2   
    10     5     6 1   
    11     5    23 1   
    12     5    24 1   
    13     6    10 1   
    14     6    18 1   
    15     7     8 1   
    16     7    19 1   
    17     8    14 ar  
    18     8    17 ar  
    19     9    16 ar  
    20     9    20 1   
    21    11    12 ar  
    22    11    17 ar  
    23    11    25 1   
    24    12    13 ar  
    25    12    26 1   
    26    13    14 ar  
    27    13    27 1   
    28    14    28 1   
    29    15    16 ar  
    30    15    19 1   
    31    16    29 1   
    32    17    30 1   
@<TRIPOS>SUBSTRUCTURE
     1 Y1G         1 TEMP              0 ****  ****    0 ROOT
