@<TRIPOS>MOLECULE
Y1H
   22    23     1     0     0
SMALL
No Charge or Current Charge


@<TRIPOS>ATOM
      1 C13        -25.4920    -2.1260   -32.5230 c6         1 Y1H       0.199900
      2 C02        -22.3740    -4.1460   -29.0090 c3         1 Y1H       0.214900
      3 C03        -23.7720    -3.7860   -29.5020 ca         1 Y1H      -0.084300
      4 C04        -24.8900    -4.1210   -28.7090 ca         1 Y1H      -0.096000
      5 C05        -26.1870    -3.8050   -29.1430 ca         1 Y1H       0.137000
      6 C07        -26.3890    -3.1580   -30.3710 ca         1 Y1H      -0.103000
      7 C08        -25.2830    -2.8180   -31.1740 ca         1 Y1H      -0.179300
      8 C09        -23.9750    -3.1240   -30.7350 ca         1 Y1H       0.144100
      9 C11        -23.1080    -1.8970   -32.6320 c6         1 Y1H       0.369600
     10 F06        -27.2490    -4.1310   -28.3740 f          1 Y1H      -0.178000
     11 O01        -21.9860    -3.2820   -27.9330 oh         1 Y1H      -0.656000
     12 O10        -22.8960    -2.7980   -31.5290 os         1 Y1H      -0.357100
     13 O12        -24.3070    -2.2930   -33.3220 os         1 Y1H      -0.450000
     14 H1         -25.6860    -1.0540   -32.3700 h1         1 Y1H       0.063700
     15 H2         -26.3500    -2.5640   -33.0520 h1         1 Y1H       0.063700
     16 H3         -22.3790    -5.1910   -28.6700 h1         1 Y1H       0.033200
     17 H4         -21.6490    -4.0800   -29.8300 h1         1 Y1H       0.033200
     18 H5         -24.7530    -4.6250   -27.7560 ha         1 Y1H       0.137000
     19 H6         -27.4010    -2.9250   -30.6960 ha         1 Y1H       0.132000
     20 H7         -22.2470    -1.9380   -33.3150 h2         1 Y1H       0.066200
     21 H8         -23.2110    -0.8670   -32.2610 h2         1 Y1H       0.066200
     22 H9         -21.0810    -3.5540   -27.6650 ho         1 Y1H       0.443000
@<TRIPOS>BOND
     1     1     7 1   
     2     1    13 1   
     3     1    14 1   
     4     1    15 1   
     5     2     3 1   
     6     2    11 1   
     7     2    16 1   
     8     2    17 1   
     9     3     4 ar  
    10     3     8 ar  
    11     4     5 ar  
    12     4    18 1   
    13     5     6 ar  
    14     5    10 1   
    15     6     7 ar  
    16     6    19 1   
    17     7     8 ar  
    18     8    12 1   
    19     9    12 1   
    20     9    13 1   
    21     9    20 1   
    22     9    21 1   
    23    11    22 1   
@<TRIPOS>SUBSTRUCTURE
     1 Y1H         1 TEMP              0 ****  ****    0 ROOT
