@<TRIPOS>MOLECULE
Y1H
   22    23     1     0     0
SMALL
abcg2


@<TRIPOS>ATOM
      1 C13        -25.4530    -2.1650   -32.5190 c6         1 Y1H       0.199900
      2 C02        -22.3900    -4.1710   -29.0560 c3         1 Y1H       0.214900
      3 C03        -23.7660    -3.8180   -29.5470 ca         1 Y1H      -0.084300
      4 C04        -24.8640    -4.1010   -28.7440 ca         1 Y1H      -0.096000
      5 C05        -26.1310    -3.7480   -29.1610 ca         1 Y1H       0.137000
      6 C07        -26.3510    -3.1150   -30.3660 ca         1 Y1H      -0.103000
      7 C08        -25.2650    -2.8250   -31.1800 ca         1 Y1H      -0.179300
      8 C09        -23.9780    -3.1610   -30.7600 ca         1 Y1H       0.144100
      9 C11        -23.1630    -1.8980   -32.5290 c6         1 Y1H       0.369600
     10 F06        -27.1830    -4.0390   -28.3750 f          1 Y1H      -0.178000
     11 O01        -22.0100    -3.2110   -28.0910 oh         1 Y1H      -0.656000
     12 O10        -22.9040    -2.8630   -31.5330 os         1 Y1H      -0.357100
     13 O12        -24.2700    -2.2410   -33.2860 os         1 Y1H      -0.450000
     14 H1         -25.7660    -1.1210   -32.3890 h1         1 Y1H       0.063700
     15 H2         -26.2360    -2.6720   -33.0850 h1         1 Y1H       0.063700
     16 H3         -22.4230    -5.1790   -28.6250 h1         1 Y1H       0.033200
     17 H4         -21.6810    -4.2060   -29.8880 h1         1 Y1H       0.033200
     18 H5         -24.7270    -4.6070   -27.7960 ha         1 Y1H       0.137000
     19 H6         -27.3570    -2.8630   -30.6810 ha         1 Y1H       0.132000
     20 H7         -22.2920    -1.8820   -33.1810 h2         1 Y1H       0.066200
     21 H8         -23.2940    -0.9150   -32.0540 h2         1 Y1H       0.066200
     22 H9         -21.1620    -3.4820   -27.7250 ho         1 Y1H       0.443000
@<TRIPOS>BOND
     1     1     7 1   
     2     1    13 1   
     3     1    14 1   
     4     1    15 1   
     5     2     3 1   
     6     2    11 1   
     7     2    16 1   
     8     2    17 1   
     9     3     4 ar  
    10     3     8 ar  
    11     4     5 ar  
    12     4    18 1   
    13     5     6 ar  
    14     5    10 1   
    15     6     7 ar  
    16     6    19 1   
    17     7     8 ar  
    18     8    12 1   
    19     9    12 1   
    20     9    13 1   
    21     9    20 1   
    22     9    21 1   
    23    11    22 1   
@<TRIPOS>SUBSTRUCTURE
     1 Y1H         1 TEMP              0 ****  ****    0 ROOT
