@<TRIPOS>MOLECULE
Y1J
   39    41     1     0     0
SMALL
No Charge or Current Charge


@<TRIPOS>ATOM
      1 N1         -17.3230    15.4590    26.4620 n          1 Y1J      -0.426800
      2 C4         -15.9350    20.3190    24.7940 cx         1 Y1J      -0.130900
      3 C5         -18.2610    14.7930    27.4110 c6         1 Y1J       0.085500
      4 C6         -18.8400    13.4430    26.9310 c6         1 Y1J       0.089500
      5 C8         -21.4900    12.2360    25.9720 cc         1 Y1J       0.054500
      6 C10        -23.4040    11.3750    26.7470 cd         1 Y1J      -0.199000
      7 C13        -17.6770    15.3240    25.0150 c6         1 Y1J       0.085500
      8 N          -15.8250    17.2190    25.9710 ns         1 Y1J      -0.502900
      9 C          -16.4900    16.4950    26.9320 c          1 Y1J       0.650100
     10 O          -16.3620    16.7360    28.1230 o          1 Y1J      -0.637100
     11 C1         -14.9350    18.3470    26.2390 c3         1 Y1J       0.134000
     12 C11        -22.9820    12.3460    27.6130 cc         1 Y1J       0.139900
     13 C12        -18.3220    13.9770    24.5980 c6         1 Y1J       0.089500
     14 C2         -15.6980    19.6600    26.1340 cx         1 Y1J      -0.157700
     15 C3         -14.9840    20.9460    25.7860 cx         1 Y1J      -0.130900
     16 C9         -22.4650    11.3110    25.6980 cd         1 Y1J      -0.109000
     17 N2         -19.3610    13.4820    25.5370 n          1 Y1J      -0.408800
     18 O1         -20.2340    12.0640    23.9530 o          1 Y1J      -0.590100
     19 O2         -21.8090    12.8970    27.1440 os         1 Y1J      -0.232000
     20 H7         -15.5080    19.8510    23.9100 hc         1 Y1J       0.069950
     21 H8         -17.7560    14.6260    28.3730 h1         1 Y1J       0.056200
     22 H9         -19.0970    15.4810    27.6030 h1         1 Y1J       0.056200
     23 H11        -18.0320    12.6980    26.9660 h1         1 Y1J       0.065200
     24 H10        -19.5860    13.1050    27.6570 h1         1 Y1J       0.065200
     25 H13        -24.3030    10.7760    26.8510 ha         1 Y1J       0.147000
     26 H18        -16.7820    15.4640    24.3920 h1         1 Y1J       0.056200
     27 H17        -18.3770    16.1330    24.7620 h1         1 Y1J       0.056200
     28 H          -15.9880    16.9570    25.0100 hn         1 Y1J       0.301500
     29 H1         -14.4950    18.2490    27.2400 h1         1 Y1J       0.059700
     30 H2         -14.1160    18.3280    25.5070 h1         1 Y1J       0.059700
     31 H14        -23.3920    12.7290    28.5370 h4         1 Y1J       0.056100
     32 H15        -17.5310    13.2170    24.5250 h1         1 Y1J       0.065200
     33 H16        -18.7490    14.0950    23.5920 h1         1 Y1J       0.065200
     34 H3         -16.5010    19.7310    26.8650 hc         1 Y1J       0.096700
     35 H4         -15.3040    21.8560    26.2900 hc         1 Y1J       0.069950
     36 H5         -13.9200    20.9000    25.5660 hc         1 Y1J       0.069950
     37 H12        -22.5020    10.6580    24.8300 ha         1 Y1J       0.157000
     38 C7         -20.3320    12.5540    25.0730 c          1 Y1J       0.550600
     39 H6         -16.8940    20.8060    24.6320 hc         1 Y1J       0.069950
@<TRIPOS>BOND
     1     1     3 1   
     2     1     7 1   
     3     1     9 1   
     4     2    14 1   
     5     2    15 1   
     6     2    20 1   
     7     2    39 1   
     8     3     4 1   
     9     3    21 1   
    10     3    22 1   
    11     4    17 1   
    12     4    23 1   
    13     4    24 1   
    14     5    16 2   
    15     5    19 1   
    16     5    38 1   
    17     6    12 2   
    18     6    16 1   
    19     6    25 1   
    20     7    13 1   
    21     7    26 1   
    22     7    27 1   
    23     8     9 1   
    24     8    11 1   
    25     8    28 1   
    26     9    10 2   
    27    11    14 1   
    28    11    29 1   
    29    11    30 1   
    30    12    19 1   
    31    12    31 1   
    32    13    17 1   
    33    13    32 1   
    34    13    33 1   
    35    14    15 1   
    36    14    34 1   
    37    15    35 1   
    38    15    36 1   
    39    16    37 1   
    40    17    38 1   
    41    18    38 2   
@<TRIPOS>SUBSTRUCTURE
     1 Y1J         1 TEMP              0 ****  ****    0 ROOT
