@<TRIPOS>MOLECULE
Y1J
   39    41     1     0     0
SMALL
bcc


@<TRIPOS>ATOM
      1 N1         -17.4420    15.4210    26.2600 n          1 Y1J      -0.493800
      2 C4         -16.3020    20.3040    25.2230 cx         1 Y1J      -0.130900
      3 C5         -18.4500    14.9310    27.1850 c6         1 Y1J       0.085500
      4 C6         -18.7060    13.4530    26.9600 c6         1 Y1J       0.089500
      5 C8         -21.3190    12.3930    25.9350 cc         1 Y1J       0.164200
      6 C10        -23.2720    11.7980    26.8220 cd         1 Y1J      -0.282300
      7 C13        -17.6850    15.1010    24.8660 c6         1 Y1J       0.085500
      8 N          -15.9120    17.0890    25.7160 ns         1 Y1J      -0.569900
      9 C          -16.5950    16.4150    26.6820 c          1 Y1J       0.784100
     10 O          -16.4260    16.6510    27.8740 o          1 Y1J      -0.637100
     11 C1         -15.0460    18.1970    26.0620 c3         1 Y1J       0.134000
     12 C11        -22.8090    12.9180    27.4300 cc         1 Y1J       0.249600
     13 C12        -17.9750    13.6170    24.6850 c6         1 Y1J       0.089500
     14 C2         -15.7840    19.4770    26.3590 cx         1 Y1J      -0.157700
     15 C3         -15.1370    20.7880    26.0360 cx         1 Y1J      -0.130900
     16 C9         -22.3040    11.4610    25.8380 cd         1 Y1J      -0.192300
     17 N2         -19.0460    13.2080    25.5700 n          1 Y1J      -0.475800
     18 O1         -20.1720    12.1090    23.9450 o          1 Y1J      -0.590100
     19 O2         -21.6310    13.2860    26.9010 os         1 Y1J      -0.320800
     20 H7         -16.1060    19.9590    24.2150 hc         1 Y1J       0.069950
     21 H8         -18.1080    15.0830    28.2040 h1         1 Y1J       0.056200
     22 H9         -19.3890    15.4850    27.0580 h1         1 Y1J       0.056200
     23 H11        -17.7960    12.8900    27.1890 h1         1 Y1J       0.065200
     24 H10        -19.4760    13.1010    27.6370 h1         1 Y1J       0.065200
     25 H13        -24.1900    11.2800    27.0460 ha         1 Y1J       0.165000
     26 H18        -16.8040    15.3200    24.2650 h1         1 Y1J       0.056200
     27 H17        -18.5220    15.6870    24.4660 h1         1 Y1J       0.056200
     28 H          -16.2870    17.1200    24.7830 hn         1 Y1J       0.301500
     29 H1         -14.4240    17.9100    26.9100 h1         1 Y1J       0.059700
     30 H2         -14.3700    18.3530    25.2180 h1         1 Y1J       0.059700
     31 H14        -23.1990    13.5400    28.2200 h4         1 Y1J       0.056100
     32 H15        -17.0740    13.0370    24.9090 h1         1 Y1J       0.065200
     33 H16        -18.2490    13.4280    23.6510 h1         1 Y1J       0.065200
     34 H3         -16.3950    19.4540    27.2550 hc         1 Y1J       0.096700
     35 H4         -15.2900    21.6170    26.7130 hc         1 Y1J       0.069950
     36 H5         -14.1560    20.7680    25.5740 hc         1 Y1J       0.069950
     37 H12        -22.3340    10.6300    25.1520 ha         1 Y1J       0.175000
     38 C7         -20.1250    12.5580    25.0840 c          1 Y1J       0.617600
     39 H6         -17.2540    20.8040    25.3430 hc         1 Y1J       0.069950
@<TRIPOS>BOND
     1     1     3 1   
     2     1     7 1   
     3     1     9 1   
     4     2    14 1   
     5     2    15 1   
     6     2    20 1   
     7     2    39 1   
     8     3     4 1   
     9     3    21 1   
    10     3    22 1   
    11     4    17 1   
    12     4    23 1   
    13     4    24 1   
    14     5    16 2   
    15     5    19 1   
    16     5    38 1   
    17     6    12 2   
    18     6    16 1   
    19     6    25 1   
    20     7    13 1   
    21     7    26 1   
    22     7    27 1   
    23     8     9 1   
    24     8    11 1   
    25     8    28 1   
    26     9    10 2   
    27    11    14 1   
    28    11    29 1   
    29    11    30 1   
    30    12    19 1   
    31    12    31 1   
    32    13    17 1   
    33    13    32 1   
    34    13    33 1   
    35    14    15 1   
    36    14    34 1   
    37    15    35 1   
    38    15    36 1   
    39    16    37 1   
    40    17    38 1   
    41    18    38 2   
@<TRIPOS>SUBSTRUCTURE
     1 Y1J         1 TEMP              0 ****  ****    0 ROOT
