@<TRIPOS>MOLECULE
Y1L
   19    20     1     0     0
SMALL
No Charge or Current Charge


@<TRIPOS>ATOM
      1 C02        -24.0270    -3.9830   -28.6890 c3         1 Y1L       0.222800
      2 C03        -23.6710    -4.4010   -30.0940 cc         1 Y1L      -0.075400
      3 C04        -23.8810    -5.6670   -30.6240 cd         1 Y1L      -0.144400
      4 C06        -22.8610    -4.1590   -32.3100 ca         1 Y1L      -0.168000
      5 C07        -22.2900    -3.4790   -33.3970 ca         1 Y1L      -0.072000
      6 C08        -21.9260    -2.1290   -33.2330 ca         1 Y1L      -0.097000
      7 C09        -22.1340    -1.4870   -31.9950 ca         1 Y1L       0.114000
      8 C11        -22.7090    -2.1870   -30.9170 ca         1 Y1L      -0.057000
      9 C12        -23.0720    -3.5350   -31.0940 ca         1 Y1L      -0.049800
     10 O01        -22.8650    -3.9800   -27.8510 oh         1 Y1L      -0.651000
     11 S05        -23.3740    -5.8540   -32.3260 ss         1 Y1L       0.075400
     12 Cl10       -21.6730     0.1990   -31.7960 cl         1 Y1L      -0.205000
     13 H1         -24.4830    -2.9850   -28.7140 h1         1 Y1L       0.027700
     14 H2         -24.7790    -4.6770   -28.2900 h1         1 Y1L       0.027700
     15 H3         -24.3110    -6.5210   -30.1130 h4         1 Y1L       0.217000
     16 H4         -22.1310    -3.9830   -34.3470 ha         1 Y1L       0.125000
     17 H5         -21.4810    -1.5810   -34.0600 ha         1 Y1L       0.129000
     18 H6         -22.8630    -1.6870   -29.9650 ha         1 Y1L       0.136000
     19 H7         -23.1670    -3.7210   -26.9530 ho         1 Y1L       0.442000
@<TRIPOS>BOND
     1     1     2 1   
     2     1    10 1   
     3     1    13 1   
     4     1    14 1   
     5     2     3 2   
     6     2     9 1   
     7     3    11 1   
     8     3    15 1   
     9     4     5 ar  
    10     4     9 ar  
    11     4    11 1   
    12     5     6 ar  
    13     5    16 1   
    14     6     7 ar  
    15     6    17 1   
    16     7     8 ar  
    17     7    12 1   
    18     8     9 ar  
    19     8    18 1   
    20    10    19 1   
@<TRIPOS>SUBSTRUCTURE
     1 Y1L         1 TEMP              0 ****  ****    0 ROOT
