@<TRIPOS>MOLECULE
Y1L
   19    20     1     0     0
SMALL
abcg2


@<TRIPOS>ATOM
      1 C02        -24.0360    -4.0550   -28.7070 c3         1 Y1L       0.222800
      2 C03        -23.6860    -4.4360   -30.1070 cc         1 Y1L      -0.075400
      3 C04        -23.9220    -5.6510   -30.6510 cd         1 Y1L      -0.144400
      4 C06        -22.8690    -4.1520   -32.3040 ca         1 Y1L      -0.168000
      5 C07        -22.2980    -3.4630   -33.3700 ca         1 Y1L      -0.072000
      6 C08        -21.9210    -2.1490   -33.1820 ca         1 Y1L      -0.097000
      7 C09        -22.1150    -1.5420   -31.9370 ca         1 Y1L       0.114000
      8 C11        -22.6750    -2.2120   -30.8720 ca         1 Y1L      -0.057000
      9 C12        -23.0650    -3.5440   -31.0530 ca         1 Y1L      -0.049800
     10 O01        -22.8470    -3.7580   -28.0060 oh         1 Y1L      -0.651000
     11 S05        -23.4330    -5.7900   -32.3020 ss         1 Y1L       0.075400
     12 CL10       -21.6260     0.1100   -31.7360 cl         1 Y1L      -0.205000
     13 H1         -24.7090    -3.1880   -28.7320 h1         1 Y1L       0.027700
     14 H2         -24.5930    -4.8750   -28.2390 h1         1 Y1L       0.027700
     15 H3         -24.3760    -6.5000   -30.1600 h4         1 Y1L       0.217000
     16 H4         -22.1530    -3.9370   -34.3320 ha         1 Y1L       0.125000
     17 H5         -21.4770    -1.5910   -33.9950 ha         1 Y1L       0.129000
     18 H6         -22.8060    -1.7240   -29.9160 ha         1 Y1L       0.136000
     19 H7         -23.0910    -3.3600   -27.1640 ho         1 Y1L       0.442000
@<TRIPOS>BOND
     1     1     2 1   
     2     1    10 1   
     3     1    13 1   
     4     1    14 1   
     5     2     3 2   
     6     2     9 1   
     7     3    11 1   
     8     3    15 1   
     9     4     5 ar  
    10     4     9 ar  
    11     4    11 1   
    12     5     6 ar  
    13     5    16 1   
    14     6     7 ar  
    15     6    17 1   
    16     7     8 ar  
    17     7    12 1   
    18     8     9 ar  
    19     8    18 1   
    20    10    19 1   
@<TRIPOS>SUBSTRUCTURE
     1 Y1L         1 TEMP              0 ****  ****    0 ROOT
