@<TRIPOS>MOLECULE
Y1M
   43    45     1     0     0
SMALL
bcc


@<TRIPOS>ATOM
      1 N1         -17.7500    15.6490    26.1130 n          1 Y1M      -0.490800
      2 C4         -16.6060    22.2220    25.3380 c5         1 Y1M      -0.064400
      3 C5         -17.9830    21.7390    25.8270 c5         1 Y1M       0.142900
      4 C6         -18.8770    15.2680    26.9460 c6         1 Y1M       0.085500
      5 C7         -19.0200    13.7600    26.9940 c6         1 Y1M       0.089500
      6 C10        -22.1570    11.1460    25.8970 cc         1 Y1M      -0.195300
      7 C13        -17.9270    13.5410    24.8710 c6         1 Y1M       0.089500
      8 N          -16.2900    17.3370    25.4580 ns         1 Y1M      -0.565900
      9 C          -17.0580    16.7900    26.4350 c          1 Y1M       0.778100
     10 O          -17.1020    17.2670    27.5670 o          1 Y1M      -0.664100
     11 C1         -15.5400    18.5570    25.6940 c3         1 Y1M       0.175200
     12 C11        -23.3130    11.5650    26.6110 cc         1 Y1M      -0.281300
     13 C12        -23.0950    12.8610    26.9430 cd         1 Y1M       0.248600
     14 C14        -17.7380    15.0500    24.7920 c6         1 Y1M       0.085500
     15 C2         -16.3140    19.8190    25.4430 c2         1 Y1M      -0.706400
     16 C3         -15.5760    21.1210    25.6190 c5         1 Y1M      -0.026200
     17 C9         -21.3180    12.2140    25.8680 cd         1 Y1M       0.166200
     18 N2         -19.1090    13.2250    25.6460 n          1 Y1M      -0.473800
     19 O1         -19.8320    11.6640    24.1770 o          1 Y1M      -0.587100
     20 O2         -21.8920    13.2630    26.5000 os         1 Y1M      -0.320800
     21 S          -17.7680    20.0000    26.3400 s4         1 Y1M       0.064700
     22 H17        -16.6570    22.4100    24.2660 hc         1 Y1M       0.051200
     23 H5         -18.3630    22.2860    26.6890 h1         1 Y1M       0.077700
     24 H18        -18.7390    21.7550    25.0460 h1         1 Y1M       0.077700
     25 H6         -18.7230    15.6450    27.9540 h1         1 Y1M       0.055950
     26 H7         -19.8060    15.7070    26.5610 h1         1 Y1M       0.055950
     27 H9         -18.1390    13.3240    27.4760 h1         1 Y1M       0.064200
     28 H8         -19.8800    13.4890    27.5970 h1         1 Y1M       0.064200
     29 H10        -21.9690    10.1750    25.4690 ha         1 Y1M       0.174000
     30 H13        -17.0480    13.0840    25.3380 h1         1 Y1M       0.064200
     31 H14        -18.0200    13.1400    23.8660 h1         1 Y1M       0.064200
     32 H          -16.5170    17.1600    24.4940 hn         1 Y1M       0.308500
     33 H1         -15.1100    18.4890    26.7030 h1         1 Y1M       0.047700
     34 H2         -14.6840    18.5490    25.0130 h1         1 Y1M       0.047700
     35 H11        -24.1900    10.9820    26.8400 ha         1 Y1M       0.165000
     36 H12        -23.6860    13.5940    27.4690 h4         1 Y1M       0.055100
     37 H16        -16.7760    15.2200    24.3120 h1         1 Y1M       0.055950
     38 H15        -18.5180    15.4810    24.1520 h1         1 Y1M       0.055950
     39 H3         -15.1650    21.2540    26.6370 hc         1 Y1M       0.037200
     40 H19        -14.7280    21.1950    24.9320 hc         1 Y1M       0.037200
     41 H20        -17.5350    20.3240    27.6700 hs         1 Y1M       0.221000
     42 C8         -20.0200    12.3470    25.1750 c          1 Y1M       0.615600
     43 H4         -16.3430    23.1610    25.8250 hc         1 Y1M       0.051200
@<TRIPOS>BOND
     1     1     4 1   
     2     1     9 1   
     3     1    14 1   
     4     2     3 1   
     5     2    16 1   
     6     2    22 1   
     7     2    43 1   
     8     3    21 1   
     9     3    23 1   
    10     3    24 1   
    11     4     5 1   
    12     4    25 1   
    13     4    26 1   
    14     5    18 1   
    15     5    27 1   
    16     5    28 1   
    17     6    12 1   
    18     6    17 2   
    19     6    29 1   
    20     7    14 1   
    21     7    18 1   
    22     7    30 1   
    23     7    31 1   
    24     8     9 1   
    25     8    11 1   
    26     8    32 1   
    27     9    10 2   
    28    11    15 1   
    29    11    33 1   
    30    11    34 1   
    31    12    13 2   
    32    12    35 1   
    33    13    20 1   
    34    13    36 1   
    35    14    37 1   
    36    14    38 1   
    37    15    16 1   
    38    15    21 2   
    39    16    39 1   
    40    16    40 1   
    41    17    20 1   
    42    17    42 1   
    43    18    42 1   
    44    19    42 2   
    45    21    41 1   
@<TRIPOS>SUBSTRUCTURE
     1 Y1M         1 TEMP              0 ****  ****    0 ROOT
