@<TRIPOS>MOLECULE
Y1M
   43    45     1     0     0
SMALL
No Charge or Current Charge


@<TRIPOS>ATOM
      1 N1         -18.1570    15.8890    26.7320 n          1 Y1M      -0.423800
      2 C4         -15.7400    21.5450    24.0130 c5         1 Y1M      -0.064400
      3 C5         -16.0940    22.6880    25.0230 c5         1 Y1M       0.142900
      4 C6         -18.6770    14.7470    27.5360 c6         1 Y1M       0.085500
      5 C7         -18.8820    13.4280    26.7570 c6         1 Y1M       0.089500
      6 C10        -21.8370    10.5460    25.2770 cc         1 Y1M      -0.112000
      7 C13        -18.9300    14.6200    24.6200 c6         1 Y1M       0.089500
      8 N          -17.3790    18.1130    26.6150 ns         1 Y1M      -0.498900
      9 C          -17.6200    17.0130    27.3950 c          1 Y1M       0.644100
     10 O          -17.3780    17.0080    28.5940 o          1 Y1M      -0.664100
     11 C1         -16.8310    19.3580    27.0850 c3         1 Y1M       0.175200
     12 C11        -22.5820    10.0700    26.3730 cc         1 Y1M      -0.198000
     13 C12        -22.3450    10.9310    27.4080 cd         1 Y1M       0.138900
     14 C14        -18.6700    15.9740    25.3300 c6         1 Y1M       0.085500
     15 C2         -16.7510    20.2520    25.8760 c2         1 Y1M      -0.706400
     16 C3         -15.6070    20.2380    24.8740 c5         1 Y1M      -0.026200
     17 C9         -21.1750    11.6640    25.7150 cd         1 Y1M       0.056500
     18 N2         -19.6070    13.6070    25.4690 n          1 Y1M      -0.406800
     19 O1         -20.2240    12.3600    23.6390 o          1 Y1M      -0.587100
     20 O2         -21.4920    11.9450    27.0320 os         1 Y1M      -0.232000
     21 S          -17.5520    22.0360    25.9820 s4         1 Y1M       0.064700
     22 H17        -16.5350    21.4350    23.2670 hc         1 Y1M       0.051200
     23 H5         -15.2790    22.8740    25.7340 h1         1 Y1M       0.077700
     24 H18        -16.3780    23.6300    24.5370 h1         1 Y1M       0.077700
     25 H6         -17.9970    14.5460    28.3760 h1         1 Y1M       0.055950
     26 H7         -19.6420    15.0470    27.9700 h1         1 Y1M       0.055950
     27 H9         -17.8890    13.0160    26.5270 h1         1 Y1M       0.064200
     28 H8         -19.3590    12.6990    27.4180 h1         1 Y1M       0.064200
     29 H10        -21.8030    10.1060    24.2840 ha         1 Y1M       0.156000
     30 H13        -17.9660    14.2060    24.2900 h1         1 Y1M       0.064200
     31 H14        -19.5240    14.8110    23.7150 h1         1 Y1M       0.064200
     32 H          -17.5980    18.0500    25.6340 hn         1 Y1M       0.308500
     33 H1         -17.4910    19.7830    27.8540 h1         1 Y1M       0.047700
     34 H2         -15.8350    19.1830    27.5170 h1         1 Y1M       0.047700
     35 H11        -23.2210     9.1920    26.3810 ha         1 Y1M       0.147000
     36 H12        -22.7170    10.9390    28.4240 h4         1 Y1M       0.055100
     37 H16        -17.9690    16.5430    24.7040 h1         1 Y1M       0.055950
     38 H15        -19.6150    16.5360    25.3510 h1         1 Y1M       0.055950
     39 H3         -14.6430    20.2200    25.3990 hc         1 Y1M       0.037200
     40 H19        -15.6350    19.3400    24.2450 hc         1 Y1M       0.037200
     41 H20        -17.1320    22.3450    27.2800 hs         1 Y1M       0.221000
     42 C8         -20.3050    12.5350    24.8500 c          1 Y1M       0.548600
     43 H4         -14.8190    21.7620    23.4620 hc         1 Y1M       0.051200
@<TRIPOS>BOND
     1     1     4 1   
     2     1     9 1   
     3     1    14 1   
     4     2     3 1   
     5     2    16 1   
     6     2    22 1   
     7     2    43 1   
     8     3    21 1   
     9     3    23 1   
    10     3    24 1   
    11     4     5 1   
    12     4    25 1   
    13     4    26 1   
    14     5    18 1   
    15     5    27 1   
    16     5    28 1   
    17     6    12 1   
    18     6    17 2   
    19     6    29 1   
    20     7    14 1   
    21     7    18 1   
    22     7    30 1   
    23     7    31 1   
    24     8     9 1   
    25     8    11 1   
    26     8    32 1   
    27     9    10 2   
    28    11    15 1   
    29    11    33 1   
    30    11    34 1   
    31    12    13 2   
    32    12    35 1   
    33    13    20 1   
    34    13    36 1   
    35    14    37 1   
    36    14    38 1   
    37    15    16 1   
    38    15    21 2   
    39    16    39 1   
    40    16    40 1   
    41    17    20 1   
    42    17    42 1   
    43    18    42 1   
    44    19    42 2   
    45    21    41 1   
@<TRIPOS>SUBSTRUCTURE
     1 Y1M         1 TEMP              0 ****  ****    0 ROOT
