@<TRIPOS>MOLECULE
Y1N
   53    55     1     0     0
SMALL
bcc


@<TRIPOS>ATOM
      1 C01         -8.1840    -1.9680     0.9530 c3         1 Y1N      -0.076100
      2 C02         -7.2710    -1.1370     0.0550 c3         1 Y1N       0.012800
      3 C03         -8.1170    -0.1760    -0.7700 c3         1 Y1N      -0.076100
      4 O04         -6.4480    -0.4090     0.9780 os         1 Y1N      -0.322900
      5 C05         -5.3710     0.2910     0.5910 ca         1 Y1N       0.223100
      6 C06         -4.6640     0.9200     1.6210 ca         1 Y1N      -0.197000
      7 C07         -3.5370     1.6740     1.3510 ca         1 Y1N      -0.090000
      8 C08         -3.0700     1.8390     0.0480 ca         1 Y1N      -0.179300
      9 C09         -1.8130     2.6160    -0.2330 c3         1 Y1N      -0.010100
     10 C10         -0.6020     1.7030    -0.1440 c3         1 Y1N       0.133400
     11 O11          0.5580     2.4870    -0.3880 os         1 Y1N      -0.326900
     12 C12          1.7660     1.9150    -0.3220 ca         1 Y1N       0.189100
     13 C13          2.8630     2.7530    -0.5440 ca         1 Y1N      -0.212000
     14 C14          4.1430     2.2430    -0.4860 ca         1 Y1N      -0.048000
     15 C15          4.3660     0.8940    -0.2060 ca         1 Y1N       0.015400
     16 N16          5.7060     0.4920    -0.1660 ne         1 Y1N      -0.189400
     17 N17          5.9050    -0.7050     0.0880 nf         1 Y1N      -0.222400
     18 C18          7.2560    -1.0930     0.1340 ca         1 Y1N       0.091400
     19 C19          7.4830    -2.4400     0.4030 ca         1 Y1N      -0.099000
     20 C20          8.7780    -2.9330     0.4760 ca         1 Y1N      -0.139000
     21 C21          9.8540    -2.0780     0.2810 ca         1 Y1N      -0.121000
     22 C22          9.6300    -0.7300     0.0120 ca         1 Y1N      -0.139000
     23 C23          8.3410    -0.2340    -0.0620 ca         1 Y1N      -0.099000
     24 C24          3.2680     0.0600     0.0110 ca         1 Y1N      -0.048000
     25 C25          1.9810     0.5600    -0.0450 ca         1 Y1N      -0.212000
     26 C26         -3.7840     1.2180    -0.9700 ca         1 Y1N      -0.090000
     27 C27         -4.9190     0.4570    -0.7190 ca         1 Y1N      -0.197000
     28 C28         -6.4280    -2.1360    -0.7910 c          1 Y1N       0.916600
     29 O29         -5.4700    -2.6710    -0.2100 o          1 Y1N      -0.813800
     30 O30         -6.8240    -2.3480    -1.9530 o          1 Y1N      -0.813800
     31 H011        -8.8480    -2.5820     0.3440 hc         1 Y1N       0.028200
     32 H012        -7.6060    -2.6310     1.5980 hc         1 Y1N       0.028200
     33 H013        -8.8050    -1.3270     1.5810 hc         1 Y1N       0.028200
     34 H031        -8.6950     0.4770    -0.1130 hc         1 Y1N       0.028200
     35 H032        -7.5300     0.4540    -1.4360 hc         1 Y1N       0.028200
     36 H033        -8.8200    -0.7320    -1.3880 hc         1 Y1N       0.028200
     37 H06         -5.0090     0.8080     2.6420 ha         1 Y1N       0.149000
     38 H27         -5.4260     0.0090    -1.5600 ha         1 Y1N       0.149000
     39 H07         -3.0140     2.1490     2.1730 ha         1 Y1N       0.110500
     40 H091        -1.8580     3.0660    -1.2270 hc         1 Y1N       0.046700
     41 H092        -1.7060     3.4290     0.4900 hc         1 Y1N       0.046700
     42 H26         -3.4540     1.3280    -1.9970 ha         1 Y1N       0.110500
     43 H101        -0.5500     1.2440     0.8490 h1         1 Y1N       0.047700
     44 H102        -0.6800     0.8970    -0.8820 h1         1 Y1N       0.047700
     45 H13          2.6980     3.8020    -0.7560 ha         1 Y1N       0.149000
     46 H25          1.1540    -0.1160     0.1270 ha         1 Y1N       0.149000
     47 H14          4.9930     2.8920    -0.6540 ha         1 Y1N       0.144000
     48 H24          3.4200    -0.9890     0.2240 ha         1 Y1N       0.144000
     49 H19          6.6340    -3.0940     0.5530 ha         1 Y1N       0.148000
     50 H23          8.1710     0.8150    -0.2670 ha         1 Y1N       0.148000
     51 H20          8.9460    -3.9810     0.6840 ha         1 Y1N       0.129000
     52 H21         10.8660    -2.4570     0.3390 ha         1 Y1N       0.126000
     53 H22         10.4690    -0.0640    -0.1390 ha         1 Y1N       0.129000
@<TRIPOS>BOND
     1     1     2 1   
     2     1    31 1   
     3     1    32 1   
     4     1    33 1   
     5     2     3 1   
     6     2     4 1   
     7     2    28 1   
     8     3    34 1   
     9     3    35 1   
    10     3    36 1   
    11     4     5 1   
    12     5     6 ar  
    13     5    27 ar  
    14     6     7 ar  
    15     6    37 1   
    16     7     8 ar  
    17     7    39 1   
    18     8     9 1   
    19     8    26 ar  
    20     9    10 1   
    21     9    40 1   
    22     9    41 1   
    23    10    11 1   
    24    10    43 1   
    25    10    44 1   
    26    11    12 1   
    27    12    13 ar  
    28    12    25 ar  
    29    13    14 ar  
    30    13    45 1   
    31    14    15 ar  
    32    14    47 1   
    33    15    16 1   
    34    15    24 ar  
    35    16    17 2   
    36    17    18 1   
    37    18    19 ar  
    38    18    23 ar  
    39    19    20 ar  
    40    19    49 1   
    41    20    21 ar  
    42    20    51 1   
    43    21    22 ar  
    44    21    52 1   
    45    22    23 ar  
    46    22    53 1   
    47    23    50 1   
    48    24    25 ar  
    49    24    48 1   
    50    25    46 1   
    51    26    27 ar  
    52    26    42 1   
    53    27    38 1   
    54    28    29 1   
    55    28    30 1   
@<TRIPOS>SUBSTRUCTURE
     1 Y1N         1 TEMP              0 ****  ****    0 ROOT
