@<TRIPOS>MOLECULE
Y1N
   53    55     1     0     0
SMALL
No Charge or Current Charge


@<TRIPOS>ATOM
      1 C01         -8.8120    -1.5800     0.9320 c3         1 Y1N      -0.076100
      2 C02         -7.7300    -0.9370     0.0270 c3         1 Y1N       0.036000
      3 C03         -8.3280     0.3300    -0.6560 c3         1 Y1N      -0.076100
      4 O04         -6.7010    -0.5040     0.9670 os         1 Y1N      -0.346100
      5 C05         -5.5230     0.1500     0.6360 ca         1 Y1N       0.223100
      6 C06         -4.7650     0.6700     1.6980 ca         1 Y1N      -0.179000
      7 C07         -3.5600     1.3510     1.4570 ca         1 Y1N      -0.072000
      8 C08         -3.0960     1.5180     0.1400 ca         1 Y1N      -0.179300
      9 C09         -1.7850     2.2500    -0.1250 c3         1 Y1N      -0.010100
     10 C10         -0.5750     1.2960    -0.1090 c3         1 Y1N       0.156600
     11 O11          0.6060     2.0760    -0.3670 os         1 Y1N      -0.350100
     12 C12          1.8630     1.5090    -0.4170 ca         1 Y1N       0.189100
     13 C13          2.9520     2.3550    -0.6750 ca         1 Y1N      -0.194000
     14 C14          4.2580     1.8370    -0.7380 ca         1 Y1N      -0.030000
     15 C15          4.4830     0.4620    -0.5400 ca         1 Y1N       0.015400
     16 N16          5.7880    -0.0610    -0.6100 ne         1 Y1N      -0.189400
     17 N17          6.4270    -0.0870     0.4830 nf         1 Y1N      -0.222400
     18 C18          7.7400    -0.6120     0.4170 ca         1 Y1N       0.091400
     19 C19          7.9620    -1.9870     0.6170 ca         1 Y1N      -0.081000
     20 C20          9.2680    -2.5080     0.5580 ca         1 Y1N      -0.121000
     21 C21         10.3550    -1.6540     0.3010 ca         1 Y1N      -0.103000
     22 C22         10.1360    -0.2790     0.1040 ca         1 Y1N      -0.121000
     23 C23          8.8300     0.2410     0.1630 ca         1 Y1N      -0.081000
     24 C24          3.3910    -0.3900    -0.2840 ca         1 Y1N      -0.030000
     25 C25          2.0850     0.1290    -0.2210 ca         1 Y1N      -0.194000
     26 C26         -3.8440     0.9910    -0.9290 ca         1 Y1N      -0.072000
     27 C27         -5.0490     0.3100    -0.6850 ca         1 Y1N      -0.179000
     28 C28         -7.2400    -2.0390    -0.9940 c          1 Y1N       0.706000
     29 O29         -6.2340    -2.6900    -0.7350 o          1 Y1N      -0.708500
     30 O30         -7.8390    -2.1570    -2.0560 o          1 Y1N      -0.708500
     31 H011        -9.6680    -1.9170     0.3340 hc         1 Y1N       0.028200
     32 H012        -8.4070    -2.4510     1.4610 hc         1 Y1N       0.028200
     33 H013        -9.1780    -0.8640     1.6780 hc         1 Y1N       0.028200
     34 H031        -8.5450     1.1070     0.0880 hc         1 Y1N       0.028200
     35 H032        -7.6520     0.7550    -1.4040 hc         1 Y1N       0.028200
     36 H033        -9.2670     0.0870    -1.1670 hc         1 Y1N       0.028200
     37 H06         -5.1200     0.5460     2.7180 ha         1 Y1N       0.131000
     38 H27         -5.5890    -0.0920    -1.5340 ha         1 Y1N       0.131000
     39 H07         -2.9900     1.7480     2.2940 ha         1 Y1N       0.092500
     40 H091        -1.8260     2.7580    -1.0970 hc         1 Y1N       0.046700
     41 H092        -1.6310     3.0340     0.6260 hc         1 Y1N       0.046700
     42 H26         -3.4900     1.1050    -1.9510 ha         1 Y1N       0.092500
     43 H101        -0.5120     0.8060     0.8720 h1         1 Y1N       0.047700
     44 H102        -0.7100     0.5260    -0.8790 h1         1 Y1N       0.047700
     45 H13          2.7840     3.4180    -0.8270 ha         1 Y1N       0.131000
     46 H25          1.2640    -0.5530    -0.0210 ha         1 Y1N       0.131000
     47 H14          5.0960     2.5000    -0.9400 ha         1 Y1N       0.126000
     48 H24          3.5590    -1.4540    -0.1340 ha         1 Y1N       0.126000
     49 H19          7.1230    -2.6490     0.8170 ha         1 Y1N       0.130000
     50 H23          8.6630     1.3050     0.0100 ha         1 Y1N       0.130000
     51 H20          9.4370    -3.5710     0.7130 ha         1 Y1N       0.111000
     52 H21         11.3640    -2.0560     0.2560 ha         1 Y1N       0.108000
     53 H22         10.9770     0.3830    -0.0940 ha         1 Y1N       0.111000
@<TRIPOS>BOND
     1     1     2 1   
     2     1    31 1   
     3     1    32 1   
     4     1    33 1   
     5     2     3 1   
     6     2     4 1   
     7     2    28 1   
     8     3    34 1   
     9     3    35 1   
    10     3    36 1   
    11     4     5 1   
    12     5     6 ar  
    13     5    27 ar  
    14     6     7 ar  
    15     6    37 1   
    16     7     8 ar  
    17     7    39 1   
    18     8     9 1   
    19     8    26 ar  
    20     9    10 1   
    21     9    40 1   
    22     9    41 1   
    23    10    11 1   
    24    10    43 1   
    25    10    44 1   
    26    11    12 1   
    27    12    13 ar  
    28    12    25 ar  
    29    13    14 ar  
    30    13    45 1   
    31    14    15 ar  
    32    14    47 1   
    33    15    16 1   
    34    15    24 ar  
    35    16    17 2   
    36    17    18 1   
    37    18    19 ar  
    38    18    23 ar  
    39    19    20 ar  
    40    19    49 1   
    41    20    21 ar  
    42    20    51 1   
    43    21    22 ar  
    44    21    52 1   
    45    22    23 ar  
    46    22    53 1   
    47    23    50 1   
    48    24    25 ar  
    49    24    48 1   
    50    25    46 1   
    51    26    27 ar  
    52    26    42 1   
    53    27    38 1   
    54    28    29 1   
    55    28    30 1   
@<TRIPOS>SUBSTRUCTURE
     1 Y1N         1 TEMP              0 ****  ****    0 ROOT
