@<TRIPOS>MOLECULE
Y1P
   39    40     1     0     0
SMALL
abcg2


@<TRIPOS>ATOM
      1 N1         -17.6080    15.4000    26.1690 n          1 Y1P      -0.427800
      2 C4         -18.6240    14.9380    27.0980 c6         1 Y1P       0.088000
      3 C5         -18.9320    13.4720    26.8640 c6         1 Y1P       0.088500
      4 C7         -21.5590    12.4210    25.8790 cc         1 Y1P       0.056500
      5 C8         -22.5340    11.4770    25.8130 cd         1 Y1P      -0.110000
      6 C10        -23.0290    12.9500    27.3940 cc         1 Y1P       0.139900
      7 N          -15.9740    16.9770    25.6470 ns         1 Y1P      -0.504900
      8 C          -16.9810    21.0190    25.3700 c3         1 Y1P       0.146900
      9 O          -16.2740    19.8280    25.1500 os         1 Y1P      -0.465000
     10 C1         -15.6420    19.3500    26.3110 c3         1 Y1P       0.120600
     11 C11        -18.2330    13.6400    24.5770 c6         1 Y1P       0.088500
     12 C12        -17.8850    15.1100    24.7760 c6         1 Y1P       0.088000
     13 C2         -15.0180    18.0000    26.0120 c3         1 Y1P       0.109000
     14 C3         -16.6940    16.3270    26.6020 c          1 Y1P       0.653100
     15 C9         -23.4880    11.8160    26.8100 cd         1 Y1P      -0.198000
     16 N2         -19.3000    13.2520    25.4770 n          1 Y1P      -0.407800
     17 O1         -16.5030    16.5280    27.7980 o          1 Y1P      -0.647100
     18 O2         -20.4380    12.1310    23.8740 o          1 Y1P      -0.588100
     19 O3         -21.8640    13.3250    26.8380 os         1 Y1P      -0.232000
     20 H8         -18.2700    15.0710    28.1160 h1         1 Y1P       0.056700
     21 H9         -19.5440    15.5250    26.9820 h1         1 Y1P       0.056700
     22 H11        -18.0370    12.8770    27.0760 h1         1 Y1P       0.064200
     23 H10        -19.7040    13.1410    27.5490 h1         1 Y1P       0.064200
     24 H12        -22.5660    10.6360    25.1390 ha         1 Y1P       0.157000
     25 H14        -23.4120    13.5790    28.1820 h4         1 Y1P       0.055100
     26 H7         -16.3290    17.0350    24.7080 hn         1 Y1P       0.314500
     27 H          -17.4510    21.3120    24.4310 h1         1 Y1P       0.028700
     28 H1         -17.7660    20.8970    26.1260 h1         1 Y1P       0.028700
     29 H2         -16.3260    21.8360    25.6980 h1         1 Y1P       0.028700
     30 H4         -14.8550    20.0410    26.6460 h1         1 Y1P       0.037700
     31 H3         -16.3580    19.2540    27.1370 h1         1 Y1P       0.037700
     32 H15        -17.3490    13.0220    24.7670 h1         1 Y1P       0.064200
     33 H16        -18.5360    13.4820    23.5460 h1         1 Y1P       0.064200
     34 H18        -17.0090    15.3060    24.1600 h1         1 Y1P       0.056700
     35 H17        -18.7080    15.7310    24.4000 h1         1 Y1P       0.056700
     36 H6         -14.3070    18.0980    25.1900 h1         1 Y1P       0.066200
     37 H5         -14.4510    17.6730    26.8810 h1         1 Y1P       0.066200
     38 H13        -24.3960    11.2910    27.0580 ha         1 Y1P       0.147000
     39 C6         -20.3790    12.5870    25.0090 c          1 Y1P       0.549600
@<TRIPOS>BOND
     1     1     2 1   
     2     1    12 1   
     3     1    14 1   
     4     2     3 1   
     5     2    20 1   
     6     2    21 1   
     7     3    16 1   
     8     3    22 1   
     9     3    23 1   
    10     4     5 2   
    11     4    19 1   
    12     4    39 1   
    13     5    15 1   
    14     5    24 1   
    15     6    15 2   
    16     6    19 1   
    17     6    25 1   
    18     7    13 1   
    19     7    14 1   
    20     7    26 1   
    21     8     9 1   
    22     8    27 1   
    23     8    28 1   
    24     8    29 1   
    25     9    10 1   
    26    10    13 1   
    27    10    30 1   
    28    10    31 1   
    29    11    12 1   
    30    11    16 1   
    31    11    32 1   
    32    11    33 1   
    33    12    34 1   
    34    12    35 1   
    35    13    36 1   
    36    13    37 1   
    37    14    17 2   
    38    15    38 1   
    39    16    39 1   
    40    18    39 2   
@<TRIPOS>SUBSTRUCTURE
     1 Y1P         1 TEMP              0 ****  ****    0 ROOT
