@<TRIPOS>MOLECULE
Y1P
   39    40     1     0     0
SMALL
No Charge or Current Charge


@<TRIPOS>ATOM
      1 N1         -17.3740    15.3680    26.3360 n          1 Y1P      -0.427800
      2 C4         -18.3740    14.8130    27.2930 c6         1 Y1P       0.088000
      3 C5         -19.0200    13.4740    26.8720 c6         1 Y1P       0.088500
      4 C7         -21.7110    12.3700    25.9030 cc         1 Y1P       0.056500
      5 C8         -22.7310    11.4880    25.6530 cd         1 Y1P      -0.110000
      6 C10        -23.2360    12.6600    27.4900 cc         1 Y1P       0.139900
      7 N          -15.7580    17.0050    25.7970 ns         1 Y1P      -0.504900
      8 C          -17.0990    21.0070    25.1490 c3         1 Y1P       0.146900
      9 O          -16.3430    19.7870    25.0700 os         1 Y1P      -0.465000
     10 C1         -15.5890    19.4730    26.2570 c3         1 Y1P       0.120600
     11 C11        -18.4100    13.8430    24.5290 c6         1 Y1P       0.088500
     12 C12        -17.6960    15.1710    24.8890 c6         1 Y1P       0.088000
     13 C2         -14.8480    18.1350    26.0320 c3         1 Y1P       0.109000
     14 C3         -16.4930    16.3790    26.7730 c          1 Y1P       0.653100
     15 C9         -23.6930    11.6670    26.6680 cd         1 Y1P      -0.198000
     16 N2         -19.5010    13.4630    25.4630 n          1 Y1P      -0.407800
     17 O1         -16.3810    16.6800    27.9510 o          1 Y1P      -0.647100
     18 O2         -20.4140    12.0090    23.9350 o          1 Y1P      -0.588100
     19 O3         -22.0210    13.1150    27.0270 os         1 Y1P      -0.232000
     20 H8         -17.9050    14.6720    28.2770 h1         1 Y1P       0.056700
     21 H9         -19.1720    15.5580    27.4210 h1         1 Y1P       0.056700
     22 H11        -18.2590    12.6870    26.9720 h1         1 Y1P       0.064200
     23 H10        -19.8030    13.2220    27.5930 h1         1 Y1P       0.064200
     24 H12        -22.7840    10.7900    24.8220 ha         1 Y1P       0.157000
     25 H14        -23.6480    13.1190    28.3790 h4         1 Y1P       0.055100
     26 H7         -15.9200    16.7120    24.8440 hn         1 Y1P       0.314500
     27 H          -17.6450    21.1790    24.2120 h1         1 Y1P       0.028700
     28 H1         -17.8310    20.9600    25.9660 h1         1 Y1P       0.028700
     29 H2         -16.4380    21.8650    25.3220 h1         1 Y1P       0.028700
     30 H4         -14.8520    20.2610    26.4660 h1         1 Y1P       0.037700
     31 H3         -16.2510    19.3840    27.1290 h1         1 Y1P       0.037700
     32 H15        -17.6640    13.0350    24.5220 h1         1 Y1P       0.064200
     33 H16        -18.8020    13.9270    23.5060 h1         1 Y1P       0.064200
     34 H18        -16.7790    15.2240    24.2870 h1         1 Y1P       0.056700
     35 H17        -18.3410    16.0040    24.5720 h1         1 Y1P       0.056700
     36 H6         -14.1780    18.2360    25.1680 h1         1 Y1P       0.066200
     37 H5         -14.2260    17.9160    26.9110 h1         1 Y1P       0.066200
     38 H13        -24.6280    11.1280    26.7790 ha         1 Y1P       0.147000
     39 C6         -20.5130    12.5670    25.0230 c          1 Y1P       0.549600
@<TRIPOS>BOND
     1     1     2 1   
     2     1    12 1   
     3     1    14 1   
     4     2     3 1   
     5     2    20 1   
     6     2    21 1   
     7     3    16 1   
     8     3    22 1   
     9     3    23 1   
    10     4     5 2   
    11     4    19 1   
    12     4    39 1   
    13     5    15 1   
    14     5    24 1   
    15     6    15 2   
    16     6    19 1   
    17     6    25 1   
    18     7    13 1   
    19     7    14 1   
    20     7    26 1   
    21     8     9 1   
    22     8    27 1   
    23     8    28 1   
    24     8    29 1   
    25     9    10 1   
    26    10    13 1   
    27    10    30 1   
    28    10    31 1   
    29    11    12 1   
    30    11    16 1   
    31    11    32 1   
    32    11    33 1   
    33    12    34 1   
    34    12    35 1   
    35    13    36 1   
    36    13    37 1   
    37    14    17 2   
    38    15    38 1   
    39    16    39 1   
    40    18    39 2   
@<TRIPOS>SUBSTRUCTURE
     1 Y1P         1 TEMP              0 ****  ****    0 ROOT
