@<TRIPOS>MOLECULE
Y1R
   16    16     1     0     0
SMALL
abcg2


@<TRIPOS>ATOM
      1 C10         12.8040    10.2470    -5.9210 cc         1 Y1R       0.236900
      2 C01         13.0460    11.5790    -6.2960 cc         1 Y1R      -0.222000
      3 C02         14.1280    11.5080    -7.1460 cd         1 Y1R      -0.196300
      4 C03         14.8550    12.5680    -7.9200 c3         1 Y1R       0.238600
      5 C04         14.3280    12.6700    -9.3440 c3         1 Y1R      -0.087100
      6 N08         14.4490    10.2040    -7.2230 na         1 Y1R       0.008800
      7 N09         13.6660     9.4220    -6.4860 nd         1 Y1R      -0.518800
      8 O07         16.2370    12.2930    -7.9940 oh         1 Y1R      -0.662000
      9 H1          12.0400     9.8670    -5.2590 h4         1 Y1R       0.036100
     10 H2          12.5120    12.4650    -5.9910 ha         1 Y1R       0.143000
     11 H3          14.6660    13.5240    -7.4160 h1         1 Y1R       0.048700
     12 H4          13.2620    12.8920    -9.3360 hc         1 Y1R       0.049033
     13 H5          14.8360    13.4690    -9.8840 hc         1 Y1R       0.049033
     14 H6          14.4750    11.7360    -9.8870 hc         1 Y1R       0.049033
     15 H7          15.2120     9.8000    -7.7440 hn         1 Y1R       0.377000
     16 H8          16.6060    12.3320    -7.1060 ho         1 Y1R       0.450000
@<TRIPOS>BOND
     1     1     2 1   
     2     1     7 2   
     3     1     9 1   
     4     2     3 2   
     5     2    10 1   
     6     3     4 1   
     7     3     6 1   
     8     4     5 1   
     9     4     8 1   
    10     4    11 1   
    11     5    12 1   
    12     5    13 1   
    13     5    14 1   
    14     6     7 1   
    15     6    15 1   
    16     8    16 1   
@<TRIPOS>SUBSTRUCTURE
     1 Y1R         1 TEMP              0 ****  ****    0 ROOT
