@<TRIPOS>MOLECULE
Y1R
   16    16     1     0     0
SMALL
No Charge or Current Charge


@<TRIPOS>ATOM
      1 C10         12.8580    10.2510    -5.8480 cc         1 Y1R       0.236900
      2 C01         13.1550    11.5700    -6.2130 cc         1 Y1R      -0.222000
      3 C02         14.1120    11.5110    -7.1800 cd         1 Y1R      -0.196300
      4 C03         14.8060    12.6130    -7.9380 c3         1 Y1R       0.238600
      5 C04         14.3950    12.6500    -9.4210 c3         1 Y1R      -0.087100
      6 N08         14.3510    10.1380    -7.3500 na         1 Y1R       0.008800
      7 N09         13.5580     9.3500    -6.5090 nd         1 Y1R      -0.518800
      8 O07         16.2180    12.4350    -7.8480 oh         1 Y1R      -0.662000
      9 H1          12.1410     9.9190    -5.1080 h4         1 Y1R       0.036100
     10 H2          12.6910    12.4560    -5.7910 ha         1 Y1R       0.143000
     11 H3          14.5220    13.5720    -7.4830 h1         1 Y1R       0.048700
     12 H4          13.3110    12.7900    -9.5120 hc         1 Y1R       0.049033
     13 H5          14.8900    13.4810    -9.9370 hc         1 Y1R       0.049033
     14 H6          14.6660    11.7170    -9.9290 hc         1 Y1R       0.049033
     15 H7          15.0220     9.7220    -7.9960 hn         1 Y1R       0.377000
     16 H8          16.4270    12.4010    -6.8890 ho         1 Y1R       0.450000
@<TRIPOS>BOND
     1     1     2 1   
     2     1     7 2   
     3     1     9 1   
     4     2     3 2   
     5     2    10 1   
     6     3     4 1   
     7     3     6 1   
     8     4     5 1   
     9     4     8 1   
    10     4    11 1   
    11     5    12 1   
    12     5    13 1   
    13     5    14 1   
    14     6     7 1   
    15     6    15 1   
    16     8    16 1   
@<TRIPOS>SUBSTRUCTURE
     1 Y1R         1 TEMP              0 ****  ****    0 ROOT
