@<TRIPOS>MOLECULE
Y1S
   35    36     1     0     0
SMALL
No Charge or Current Charge


@<TRIPOS>ATOM
      1 N1         -17.2950    15.4270    26.4170 n          1 Y1S      -0.417800
      2 C4         -18.1180    13.7350    24.6490 c6         1 Y1S       0.089000
      3 C5         -20.2770    12.5110    24.9930 c          1 Y1S       0.549600
      4 C6         -21.5760    12.3920    25.7320 cc         1 Y1S       0.053500
      5 C7         -22.5660    11.4890    25.4380 cd         1 Y1S      -0.109000
      6 C8         -23.6430    11.7560    26.3070 cd         1 Y1S      -0.198000
      7 C10        -19.0160    13.5920    26.9220 c6         1 Y1S       0.089000
      8 N          -15.6050    17.0070    25.9300 ns         1 Y1S      -0.521900
      9 C          -16.4640    16.4750    26.8620 c          1 Y1S       0.662100
     10 O          -16.4950    16.8860    28.0120 o          1 Y1S      -0.627100
     11 C1         -14.6970    18.1480    26.1710 c3         1 Y1S       0.048000
     12 C11        -18.4120    14.9660    27.2900 c6         1 Y1S       0.086000
     13 C2         -15.3390    19.5330    25.9070 c3         1 Y1S       0.276000
     14 C3         -17.4390    15.0920    24.9660 c6         1 Y1S       0.086000
     15 C9         -23.2820    12.8200    27.0870 cc         1 Y1S       0.141900
     16 F          -14.4370    20.5200    26.1060 f          1 Y1S      -0.114333
     17 F1         -15.7820    19.6260    24.6310 f          1 Y1S      -0.114333
     18 F2         -16.3890    19.7590    26.7300 f          1 Y1S      -0.114333
     19 N2         -19.3190    13.4460    25.4720 n          1 Y1S      -0.407800
     20 O1         -20.0510    11.8570    23.9800 o          1 Y1S      -0.585100
     21 O2         -22.0160    13.2340    26.7380 os         1 Y1S      -0.231000
     22 H6         -18.3800    13.7210    23.5810 h1         1 Y1S       0.064200
     23 H5         -17.3860    12.9300    24.8110 h1         1 Y1S       0.064200
     24 H7         -22.5230    10.7180    24.6740 ha         1 Y1S       0.157000
     25 H8         -24.5900    11.2270    26.3500 ha         1 Y1S       0.148000
     26 H10        -19.8850    13.4090    27.5610 h1         1 Y1S       0.064200
     27 H11        -18.2810    12.8180    27.1900 h1         1 Y1S       0.064200
     28 H          -15.6370    16.6040    25.0030 hn         1 Y1S       0.323500
     29 H1         -14.3400    18.1160    27.2090 h1         1 Y1S       0.090200
     30 H2         -13.8190    18.0400    25.5220 h1         1 Y1S       0.090200
     31 H13        -19.2120    15.7190    27.2470 h1         1 Y1S       0.059200
     32 H12        -18.0710    14.9200    28.3340 h1         1 Y1S       0.059200
     33 H3         -18.0300    15.8900    24.4940 h1         1 Y1S       0.059200
     34 H4         -16.4540    15.0870    24.4790 h1         1 Y1S       0.059200
     35 H9         -23.7960    13.3560    27.8740 h4         1 Y1S       0.057100
@<TRIPOS>BOND
     1     1     9 1   
     2     1    12 1   
     3     1    14 1   
     4     2    14 1   
     5     2    19 1   
     6     2    22 1   
     7     2    23 1   
     8     3     4 1   
     9     3    19 1   
    10     3    20 2   
    11     4     5 2   
    12     4    21 1   
    13     5     6 1   
    14     5    24 1   
    15     6    15 2   
    16     6    25 1   
    17     7    12 1   
    18     7    19 1   
    19     7    26 1   
    20     7    27 1   
    21     8     9 1   
    22     8    11 1   
    23     8    28 1   
    24     9    10 2   
    25    11    13 1   
    26    11    29 1   
    27    11    30 1   
    28    12    31 1   
    29    12    32 1   
    30    13    16 1   
    31    13    17 1   
    32    13    18 1   
    33    14    33 1   
    34    14    34 1   
    35    15    21 1   
    36    15    35 1   
@<TRIPOS>SUBSTRUCTURE
     1 Y1S         1 TEMP              0 ****  ****    0 ROOT
