@<TRIPOS>MOLECULE
Y1S
   35    36     1     0     0
SMALL
bcc


@<TRIPOS>ATOM
      1 N1         -17.5550    15.5140    26.2660 n          1 Y1S      -0.484800
      2 C4         -18.0810    13.7740    24.6160 c6         1 Y1S       0.089000
      3 C5         -20.2180    12.6570    24.9130 c          1 Y1S       0.616600
      4 C6         -21.4430    12.4430    25.7100 cc         1 Y1S       0.163200
      5 C7         -22.3460    11.4320    25.6200 cd         1 Y1S      -0.192300
      6 C8         -23.3810    11.7370    26.5460 cd         1 Y1S      -0.281300
      7 C10        -18.9300    13.5920    26.8540 c6         1 Y1S       0.089000
      8 N          -15.7590    16.9610    25.9200 ns         1 Y1S      -0.588900
      9 C          -16.7200    16.4790    26.7620 c          1 Y1S       0.796100
     10 O          -16.8050    16.8780    27.9160 o          1 Y1S      -0.627100
     11 C1         -14.7910    17.9170    26.3680 c3         1 Y1S       0.048000
     12 C11        -18.6470    15.0590    27.1110 c6         1 Y1S       0.086000
     13 C2         -15.1630    19.3260    25.9570 c3         1 Y1S       0.639900
     14 C3         -17.7690    15.2450    24.8540 c6         1 Y1S       0.086000
     15 C9         -23.0350    12.9190    27.1130 cc         1 Y1S       0.251600
     16 F          -14.2670    20.2120    26.4150 f          1 Y1S      -0.235633
     17 F1         -15.2100    19.4620    24.6240 f          1 Y1S      -0.235633
     18 F2         -16.3620    19.6970    26.4220 f          1 Y1S      -0.235633
     19 N2         -19.1980    13.3660    25.4450 n          1 Y1S      -0.474800
     20 O1         -20.1870    12.1940    23.7800 o          1 Y1S      -0.585100
     21 O2         -21.8660    13.3540    26.6150 os         1 Y1S      -0.319800
     22 H6         -18.3190    13.6240    23.5670 h1         1 Y1S       0.064200
     23 H5         -17.2020    13.1660    24.8550 h1         1 Y1S       0.064200
     24 H7         -22.2780    10.5690    24.9780 ha         1 Y1S       0.175000
     25 H8         -24.2650    11.1580    26.7580 ha         1 Y1S       0.166000
     26 H10        -19.7480    13.2590    27.4820 h1         1 Y1S       0.064200
     27 H11        -18.0500    13.0020    27.1320 h1         1 Y1S       0.064200
     28 H          -15.5920    16.5440    25.0210 hn         1 Y1S       0.323500
     29 H1         -14.6890    17.8830    27.4520 h1         1 Y1S       0.090200
     30 H2         -13.8160    17.6830    25.9400 h1         1 Y1S       0.090200
     31 H13        -19.5530    15.6470    26.9230 h1         1 Y1S       0.059200
     32 H12        -18.3770    15.1880    28.1550 h1         1 Y1S       0.059200
     33 H3         -18.5970    15.8560    24.4740 h1         1 Y1S       0.059200
     34 H4         -16.8950    15.4840    24.2550 h1         1 Y1S       0.059200
     35 H9         -23.5090    13.5450    27.8520 h4         1 Y1S       0.057100
@<TRIPOS>BOND
     1     1     9 1   
     2     1    12 1   
     3     1    14 1   
     4     2    14 1   
     5     2    19 1   
     6     2    22 1   
     7     2    23 1   
     8     3     4 1   
     9     3    19 1   
    10     3    20 2   
    11     4     5 2   
    12     4    21 1   
    13     5     6 1   
    14     5    24 1   
    15     6    15 2   
    16     6    25 1   
    17     7    12 1   
    18     7    19 1   
    19     7    26 1   
    20     7    27 1   
    21     8     9 1   
    22     8    11 1   
    23     8    28 1   
    24     9    10 2   
    25    11    13 1   
    26    11    29 1   
    27    11    30 1   
    28    12    31 1   
    29    12    32 1   
    30    13    16 1   
    31    13    17 1   
    32    13    18 1   
    33    14    33 1   
    34    14    34 1   
    35    15    21 1   
    36    15    35 1   
@<TRIPOS>SUBSTRUCTURE
     1 Y1S         1 TEMP              0 ****  ****    0 ROOT
