@<TRIPOS>MOLECULE
Y1V
   23    22     1     0     0
SMALL
No Charge or Current Charge


@<TRIPOS>ATOM
      1 C            6.1840    17.0800    -4.8720 c          1 Y1V       0.692000
      2 O            7.3330    17.1850    -5.2830 o          1 Y1V      -0.737000
      3 CB           5.4680    14.7320    -5.6440 c3         1 Y1V      -0.037400
      4 CG           4.3900    13.7610    -6.2170 c3         1 Y1V      -0.052700
      5 CD           2.9990    13.8820    -5.5300 c3         1 Y1V       0.159800
      6 NE           3.0160    13.5290    -4.0960 n8         1 Y1V      -0.976200
      7 CM           4.9020    12.2980    -6.2230 c3         1 Y1V      -0.087100
      8 CQ           5.1450    16.2520    -5.7370 c3         1 Y1V       0.011500
      9 NA           4.9920    16.6900    -7.1760 n8         1 Y1V      -1.004200
     10 O1           5.7730    17.6780    -3.8870 o          1 Y1V      -0.737000
     11 HB3          5.6430    14.4790    -4.5900 hc         1 Y1V       0.041700
     12 HB2          6.4210    14.5470    -6.1560 hc         1 Y1V       0.041700
     13 HG2          4.2360    14.0310    -7.2690 hc         1 Y1V       0.048700
     14 HD2          2.6130    14.9050    -5.6330 h1         1 Y1V       0.018200
     15 HD3          2.2920    13.2110    -6.0360 h1         1 Y1V       0.018200
     16 H            2.0520    13.5210    -3.7440 hn         1 Y1V       0.373000
     17 H1           3.3220    12.5540    -4.0040 hn         1 Y1V       0.373000
     18 HM11         4.1510    11.6270    -6.6570 hc         1 Y1V       0.017367
     19 HM1          5.8150    12.2130    -6.8240 hc         1 Y1V       0.017367
     20 HM2          5.1300    11.9520    -5.2080 hc         1 Y1V       0.017367
     21 HA           4.1710    16.4110    -5.2550 h1         1 Y1V       0.044700
     22 HN1          4.7380    17.6860    -7.1970 hn         1 Y1V       0.378500
     23 HN3          5.9200    16.6780    -7.6160 hn         1 Y1V       0.378500
@<TRIPOS>BOND
     1     1     2 1   
     2     1     8 1   
     3     1    10 1   
     4     3     4 1   
     5     3     8 1   
     6     3    11 1   
     7     3    12 1   
     8     4     5 1   
     9     4     7 1   
    10     4    13 1   
    11     5     6 1   
    12     5    14 1   
    13     5    15 1   
    14     6    16 1   
    15     6    17 1   
    16     7    18 1   
    17     7    19 1   
    18     7    20 1   
    19     8     9 1   
    20     8    21 1   
    21     9    22 1   
    22     9    23 1   
@<TRIPOS>SUBSTRUCTURE
     1 Y1V         1 TEMP              0 ****  ****    0 ROOT
