@<TRIPOS>MOLECULE
Y1V
   23    22     1     0     0
SMALL
abcg2


@<TRIPOS>ATOM
      1 C            6.2440    17.0130    -4.9700 c          1 Y1V       0.692000
      2 O            6.9770    17.7200    -5.6900 o          1 Y1V      -0.737000
      3 CB           5.4640    14.7120    -5.5960 c3         1 Y1V      -0.037400
      4 CG           4.4480    13.7600    -6.2300 c3         1 Y1V      -0.052700
      5 CD           3.0360    13.9120    -5.6660 c3         1 Y1V       0.159800
      6 NE           2.9780    13.6930    -4.2270 n8         1 Y1V      -0.976200
      7 CM           4.9410    12.3180    -6.1190 c3         1 Y1V      -0.087100
      8 CQ           5.1220    16.2030    -5.6690 c3         1 Y1V       0.011500
      9 NA           4.8400    16.5900    -7.0440 n8         1 Y1V      -1.004200
     10 O1           6.3300    16.8720    -3.7310 o          1 Y1V      -0.737000
     11 HB3          5.6070    14.4410    -4.5480 hc         1 Y1V       0.041700
     12 HB2          6.4340    14.5490    -6.0840 hc         1 Y1V       0.041700
     13 HG2          4.3740    14.0040    -7.2940 hc         1 Y1V       0.048700
     14 HD2          2.6790    14.9250    -5.8670 h1         1 Y1V       0.018200
     15 HD3          2.3710    13.2410    -6.2320 h1         1 Y1V       0.018200
     16 H            2.0410    13.8820    -3.8970 hn         1 Y1V       0.373000
     17 H1           3.1430    12.7150    -4.0240 hn         1 Y1V       0.373000
     18 HM11         4.2430    11.6200    -6.5860 hc         1 Y1V       0.017367
     19 HM1          5.9070    12.1950    -6.6120 hc         1 Y1V       0.017367
     20 HM2          5.0730    12.0110    -5.0790 hc         1 Y1V       0.017367
     21 HA           4.2040    16.3630    -5.0910 h1         1 Y1V       0.044700
     22 HN1          4.5300    17.5550    -7.0510 hn         1 Y1V       0.378500
     23 HN3          5.7200    16.6080    -7.5480 hn         1 Y1V       0.378500
@<TRIPOS>BOND
     1     1     2 1   
     2     1     8 1   
     3     1    10 1   
     4     3     4 1   
     5     3     8 1   
     6     3    11 1   
     7     3    12 1   
     8     4     5 1   
     9     4     7 1   
    10     4    13 1   
    11     5     6 1   
    12     5    14 1   
    13     5    15 1   
    14     6    16 1   
    15     6    17 1   
    16     7    18 1   
    17     7    19 1   
    18     7    20 1   
    19     8     9 1   
    20     8    21 1   
    21     9    22 1   
    22     9    23 1   
@<TRIPOS>SUBSTRUCTURE
     1 Y1V         1 TEMP              0 ****  ****    0 ROOT
