@<TRIPOS>MOLECULE
Y1W
   61    65     1     0     0
SMALL
No Charge or Current Charge


@<TRIPOS>ATOM
      1 C02         -7.9440   -50.8170   -29.3940 ca         1 Y1W       0.152000
      2 C03         -7.2180   -50.4140   -28.2440 ca         1 Y1W      -0.098300
      3 C04         -6.7870   -48.9410   -28.0780 c3         1 Y1W       0.235600
      4 C06         -7.9620   -48.0420   -27.6400 c3         1 Y1W      -0.119400
      5 C07         -7.5750   -46.6370   -27.1150 c6         1 Y1W       0.388300
      6 C09         -5.3620   -45.6890   -27.6120 c6         1 Y1W       0.163600
      7 C10         -5.4000   -44.8790   -26.2780 c6         1 Y1W       0.100500
      8 C13         -5.8860   -41.1000   -25.7510 ca         1 Y1W      -0.096300
      9 C14         -4.8540   -40.1820   -26.0400 ca         1 Y1W      -0.104000
     10 C15         -5.1650   -38.8620   -26.4040 ca         1 Y1W       0.054100
     11 C17         -4.4760   -36.5680   -26.7160 c6         1 Y1W       0.117600
     12 C18         -5.7960   -36.3720   -27.4930 c6         1 Y1W       0.117600
     13 C20         -6.5180   -38.4540   -26.5060 ca         1 Y1W       0.062100
     14 C21         -7.5460   -39.3640   -26.2090 ca         1 Y1W      -0.110000
     15 C22         -7.2300   -40.6820   -25.8340 ca         1 Y1W      -0.086000
     16 C23         -6.4130   -45.5690   -25.3050 c6         1 Y1W       0.163600
     17 C25         -6.9390   -51.4240   -27.2690 ca         1 Y1W      -0.008000
     18 C26         -6.2950   -51.1320   -26.0360 ca         1 Y1W      -0.215000
     19 C27         -6.0220   -52.1520   -25.1010 ca         1 Y1W       0.155100
     20 C29         -4.9740   -50.5960   -23.4890 c3         1 Y1W       0.145900
     21 C30         -6.3940   -53.4690   -25.3870 ca         1 Y1W      -0.132000
     22 C31         -7.0490   -53.7720   -26.5880 ca         1 Y1W      -0.043000
     23 C32         -7.3380   -52.7710   -27.5340 ca         1 Y1W       0.215000
     24 C34         -8.2980   -52.1650   -29.5580 ca         1 Y1W       0.301900
     25 F01         -8.3270   -49.9270   -30.3410 f          1 Y1W      -0.156000
     26 N11         -5.7120   -43.4350   -26.4980 n7         1 Y1W      -0.862400
     27 N33         -7.9960   -53.1280   -28.6600 nb         1 Y1W      -0.628000
     28 O05         -6.2280   -48.4240   -29.2870 oh         1 Y1W      -0.655000
     29 O08         -6.7040   -45.9930   -28.0830 os         1 Y1W      -0.487000
     30 O16         -4.1400   -37.9720   -26.6620 os         1 Y1W      -0.331100
     31 O19         -6.8420   -37.1690   -26.8940 os         1 Y1W      -0.328100
     32 O24         -6.8890   -46.8160   -25.8600 os         1 Y1W      -0.487000
     33 O28         -5.3980   -51.9110   -23.8930 os         1 Y1W      -0.339100
     34 H041        -6.0100   -48.8650   -27.3130 h1         1 Y1W       0.050700
     35 H062        -8.6680   -47.9360   -28.4720 hc         1 Y1W       0.074200
     36 H061        -8.5150   -48.5610   -26.8490 hc         1 Y1W       0.074200
     37 H071        -8.4840   -46.0340   -26.9640 h2         1 Y1W       0.061700
     38 H091        -4.8220   -46.6330   -27.4470 h1         1 Y1W       0.054200
     39 H092        -4.8200   -45.1300   -28.3870 h1         1 Y1W       0.054200
     40 H101        -4.3960   -44.9460   -25.8330 h1         1 Y1W       0.041700
     41 H121        -6.2160   -42.8280   -24.5220 h1         1 Y1W       0.036700
     42 H122        -4.5230   -42.5670   -24.9670 h1         1 Y1W       0.036700
     43 H141        -3.8130   -40.4890   -25.9730 ha         1 Y1W       0.124000
     44 H171        -4.5950   -36.1890   -25.6910 h1         1 Y1W       0.067200
     45 H172        -3.6560   -36.0140   -27.1950 h1         1 Y1W       0.067200
     46 H182        -6.0950   -35.3150   -27.4910 h1         1 Y1W       0.068200
     47 H181        -5.6570   -36.6910   -28.5360 h1         1 Y1W       0.068200
     48 H211        -8.5850   -39.0510   -26.2800 ha         1 Y1W       0.130000
     49 H221        -8.0310   -41.3850   -25.6130 ha         1 Y1W       0.129000
     50 H231        -5.9290   -45.7660   -24.3390 h1         1 Y1W       0.054200
     51 H232        -7.2780   -44.9150   -25.1210 h1         1 Y1W       0.054200
     52 H261        -6.0190   -50.1180   -25.7810 ha         1 Y1W       0.133000
     53 H291        -4.5030   -50.6370   -22.4990 h1         1 Y1W       0.043700
     54 H292        -4.2430   -50.1860   -24.1960 h1         1 Y1W       0.043700
     55 H293        -5.8300   -49.9120   -23.4290 h1         1 Y1W       0.043700
     56 H301        -6.1850   -54.2580   -24.6680 ha         1 Y1W       0.132000
     57 H311        -7.3460   -54.7980   -26.7900 ha         1 Y1W       0.134000
     58 H341        -8.8490   -52.4860   -30.4410 h4         1 Y1W       0.035100
     59 H111        -5.1100   -43.0750   -27.2480 hn         1 Y1W       0.426000
     60 H051        -6.2630   -47.4440   -29.1760 ho         1 Y1W       0.468000
     61 C12         -5.5540   -42.5280   -25.3460 c3         1 Y1W       0.208100
@<TRIPOS>BOND
     1     1     2 ar  
     2     1    24 ar  
     3     1    25 1   
     4     2     3 1   
     5     2    17 ar  
     6     3     4 1   
     7     3    28 1   
     8     3    34 1   
     9     4     5 1   
    10     4    35 1   
    11     4    36 1   
    12     5    29 1   
    13     5    32 1   
    14     5    37 1   
    15     6     7 1   
    16     6    29 1   
    17     6    38 1   
    18     6    39 1   
    19     7    16 1   
    20     7    26 1   
    21     7    40 1   
    22     8     9 ar  
    23     8    15 ar  
    24     8    61 1   
    25     9    10 ar  
    26     9    43 1   
    27    10    13 ar  
    28    10    30 1   
    29    11    12 1   
    30    11    30 1   
    31    11    44 1   
    32    11    45 1   
    33    12    31 1   
    34    12    46 1   
    35    12    47 1   
    36    13    14 ar  
    37    13    31 1   
    38    14    15 ar  
    39    14    48 1   
    40    15    49 1   
    41    16    32 1   
    42    16    50 1   
    43    16    51 1   
    44    17    18 ar  
    45    17    23 ar  
    46    18    19 ar  
    47    18    52 1   
    48    19    21 ar  
    49    19    33 1   
    50    20    33 1   
    51    20    53 1   
    52    20    54 1   
    53    20    55 1   
    54    21    22 ar  
    55    21    56 1   
    56    22    23 ar  
    57    22    57 1   
    58    23    27 ar  
    59    24    27 ar  
    60    24    58 1   
    61    26    59 1   
    62    26    61 1   
    63    28    60 1   
    64    41    61 1   
    65    42    61 1   
@<TRIPOS>SUBSTRUCTURE
     1 Y1W         1 TEMP              0 ****  ****    0 ROOT
