@<TRIPOS>MOLECULE
Y1W
   61    65     1     0     0
SMALL
abcg2


@<TRIPOS>ATOM
      1 C02         -7.9140   -50.5870   -29.4020 ca         1 Y1W       0.152000
      2 C03         -7.2100   -50.1620   -28.3100 ca         1 Y1W      -0.098300
      3 C04         -6.2760   -48.9760   -28.3130 c3         1 Y1W       0.235600
      4 C06         -7.0400   -47.7120   -27.8900 c3         1 Y1W      -0.119400
      5 C07         -6.1440   -46.5800   -27.4220 c6         1 Y1W       0.388300
      6 C09         -3.9720   -45.7780   -27.9940 c6         1 Y1W       0.163600
      7 C10         -4.0980   -45.0030   -26.6940 c6         1 Y1W       0.100500
      8 C13         -5.5850   -41.6040   -26.0700 ca         1 Y1W      -0.096300
      9 C14         -5.0280   -40.3370   -25.9610 ca         1 Y1W      -0.104000
     10 C15         -5.7970   -39.1930   -26.1380 ca         1 Y1W       0.054100
     11 C17         -6.1000   -36.9030   -25.8550 c6         1 Y1W       0.117600
     12 C18         -7.2230   -37.0200   -26.8580 c6         1 Y1W       0.117600
     13 C20         -7.1540   -39.3110   -26.4480 ca         1 Y1W       0.062100
     14 C21         -7.7150   -40.5780   -26.5570 ca         1 Y1W      -0.110000
     15 C22         -6.9430   -41.7110   -26.3670 ca         1 Y1W      -0.086000
     16 C23         -4.7250   -45.9440   -25.6560 c6         1 Y1W       0.163600
     17 C25         -7.4310   -50.8990   -27.1070 ca         1 Y1W      -0.008000
     18 C26         -6.8430   -50.5360   -25.8710 ca         1 Y1W      -0.215000
     19 C27         -7.0830   -51.2770   -24.7380 ca         1 Y1W       0.155100
     20 C29         -5.7490   -49.8640   -23.3810 c3         1 Y1W       0.145900
     21 C30         -7.9160   -52.4210   -24.7960 ca         1 Y1W      -0.132000
     22 C31         -8.4980   -52.7800   -25.9730 ca         1 Y1W      -0.043000
     23 C32         -8.2850   -52.0290   -27.1540 ca         1 Y1W       0.215000
     24 C34         -8.7450   -51.7210   -29.3590 ca         1 Y1W       0.301900
     25 F01         -7.8680   -49.9510   -30.5780 f          1 Y1W      -0.156000
     26 N11         -4.9040   -43.8070   -26.8930 n7         1 Y1W      -0.862400
     27 N33         -8.9180   -52.4250   -28.2790 nb         1 Y1W      -0.628000
     28 O05         -5.6690   -48.8470   -29.5730 oh         1 Y1W      -0.655000
     29 O08         -5.2230   -46.2690   -28.4520 os         1 Y1W      -0.487000
     30 O16         -5.1960   -37.9860   -26.0040 os         1 Y1W      -0.331100
     31 O19         -7.9400   -38.2250   -26.6510 os         1 Y1W      -0.328100
     32 O24         -5.4720   -46.9850   -26.2730 os         1 Y1W      -0.487000
     33 O28         -6.5800   -51.0000   -23.5260 os         1 Y1W      -0.339100
     34 H041        -5.5030   -49.1810   -27.5630 h1         1 Y1W       0.050700
     35 H062        -7.6540   -47.3680   -28.7260 hc         1 Y1W       0.074200
     36 H061        -7.7310   -47.9370   -27.0730 hc         1 Y1W       0.074200
     37 H071        -6.7560   -45.6900   -27.2100 h2         1 Y1W       0.061700
     38 H091        -3.2630   -46.6000   -27.8480 h1         1 Y1W       0.054200
     39 H092        -3.5700   -45.1420   -28.7860 h1         1 Y1W       0.054200
     40 H101        -3.0770   -44.7520   -26.3660 h1         1 Y1W       0.041700
     41 H121        -5.0400   -43.2860   -24.8860 h1         1 Y1W       0.036700
     42 H122        -3.6910   -42.5240   -25.7010 h1         1 Y1W       0.036700
     43 H141        -3.9750   -40.2210   -25.7290 ha         1 Y1W       0.124000
     44 H171        -6.5020   -36.8850   -24.8360 h1         1 Y1W       0.067200
     45 H172        -5.5350   -35.9860   -26.0180 h1         1 Y1W       0.067200
     46 H182        -7.9290   -36.1990   -26.7360 h1         1 Y1W       0.068200
     47 H181        -6.8270   -36.9860   -27.8790 h1         1 Y1W       0.068200
     48 H211        -8.7690   -40.6650   -26.7940 ha         1 Y1W       0.130000
     49 H221        -7.4010   -42.6880   -26.4600 ha         1 Y1W       0.129000
     50 H231        -3.9440   -46.4390   -25.0770 h1         1 Y1W       0.054200
     51 H232        -5.3610   -45.3910   -24.9560 h1         1 Y1W       0.054200
     52 H261        -6.2240   -49.6530   -25.8130 ha         1 Y1W       0.133000
     53 H291        -5.4630   -49.8230   -22.3330 h1         1 Y1W       0.043700
     54 H292        -4.8460   -49.9410   -23.9920 h1         1 Y1W       0.043700
     55 H293        -6.2730   -48.9410   -23.6420 h1         1 Y1W       0.043700
     56 H301        -8.0870   -52.9970   -23.8950 ha         1 Y1W       0.132000
     57 H311        -9.1440   -53.6470   -26.0280 ha         1 Y1W       0.134000
     58 H341        -9.2640   -52.0280   -30.2620 h4         1 Y1W       0.035100
     59 H111        -4.6390   -43.3720   -27.7700 hn         1 Y1W       0.426000
     60 H051        -5.2150   -47.9940   -29.5690 ho         1 Y1W       0.468000
     61 C12         -4.7410   -42.8270   -25.8340 c3         1 Y1W       0.208100
@<TRIPOS>BOND
     1     1     2 ar  
     2     1    24 ar  
     3     1    25 1   
     4     2     3 1   
     5     2    17 ar  
     6     3     4 1   
     7     3    28 1   
     8     3    34 1   
     9     4     5 1   
    10     4    35 1   
    11     4    36 1   
    12     5    29 1   
    13     5    32 1   
    14     5    37 1   
    15     6     7 1   
    16     6    29 1   
    17     6    38 1   
    18     6    39 1   
    19     7    16 1   
    20     7    26 1   
    21     7    40 1   
    22     8     9 ar  
    23     8    15 ar  
    24     8    61 1   
    25     9    10 ar  
    26     9    43 1   
    27    10    13 ar  
    28    10    30 1   
    29    11    12 1   
    30    11    30 1   
    31    11    44 1   
    32    11    45 1   
    33    12    31 1   
    34    12    46 1   
    35    12    47 1   
    36    13    14 ar  
    37    13    31 1   
    38    14    15 ar  
    39    14    48 1   
    40    15    49 1   
    41    16    32 1   
    42    16    50 1   
    43    16    51 1   
    44    17    18 ar  
    45    17    23 ar  
    46    18    19 ar  
    47    18    52 1   
    48    19    21 ar  
    49    19    33 1   
    50    20    33 1   
    51    20    53 1   
    52    20    54 1   
    53    20    55 1   
    54    21    22 ar  
    55    21    56 1   
    56    22    23 ar  
    57    22    57 1   
    58    23    27 ar  
    59    24    27 ar  
    60    24    58 1   
    61    26    59 1   
    62    26    61 1   
    63    28    60 1   
    64    41    61 1   
    65    42    61 1   
@<TRIPOS>SUBSTRUCTURE
     1 Y1W         1 TEMP              0 ****  ****    0 ROOT
