@<TRIPOS>MOLECULE
Y1Y
   32    32     1     0     0
SMALL
No Charge or Current Charge


@<TRIPOS>ATOM
      1 C01         34.9040   -35.8170    14.3080 c3         1 Y1Y      -0.022800
      2 C02         35.1830   -34.3580    14.5490 cc         1 Y1Y      -0.210300
      3 C03         35.4720   -33.3910    13.6170 cd         1 Y1Y      -0.154000
      4 C04         35.6850   -32.1030    14.1790 cd         1 Y1Y      -0.062000
      5 C05         35.5580   -32.0900    15.5490 cc         1 Y1Y      -0.281600
      6 C06         35.7200   -30.9140    16.4180 c          1 Y1Y       0.638700
      7 C08         36.2050   -28.5470    16.5030 c3         1 Y1Y       0.121600
      8 C09         36.5340   -27.3930    15.5150 c3         1 Y1Y       0.123300
      9 C10         36.5110   -25.9690    16.1860 c3         1 Y1Y       0.188500
     10 C11         36.8870   -24.8230    15.2070 c3         1 Y1Y      -0.194400
     11 C12         36.4290   -23.4650    15.7600 c          1 Y1Y       0.733000
     12 N15         37.4050   -25.9110    17.3710 n8         1 Y1Y      -0.972200
     13 O07         36.0150   -29.7590    15.7380 os         1 Y1Y      -0.445100
     14 O13         35.2670   -23.1320    15.5710 o          1 Y1Y      -0.739500
     15 O14         37.2400   -22.7620    16.3470 o          1 Y1Y      -0.739500
     16 O16         35.6010   -27.4690    14.4230 oh         1 Y1Y      -0.637000
     17 O17         35.6010   -30.9630    17.6340 o          1 Y1Y      -0.498000
     18 S18         35.1700   -33.6830    16.1800 ss         1 Y1Y       0.279000
     19 H1          35.6400   -36.4460    14.8240 hc         1 Y1Y       0.045367
     20 H2          33.9080   -36.0900    14.6750 hc         1 Y1Y       0.045367
     21 H3          34.9470   -36.0580    13.2390 hc         1 Y1Y       0.045367
     22 H4          35.5320   -33.5880    12.5510 ha         1 Y1Y       0.132000
     23 H5          35.9240   -31.2260    13.5830 ha         1 Y1Y       0.149000
     24 H6          37.0310   -28.6680    17.2170 h1         1 Y1Y       0.056700
     25 H7          35.2950   -28.2990    17.0660 h1         1 Y1Y       0.056700
     26 H8          37.5480   -27.5700    15.1310 h1         1 Y1Y       0.026700
     27 H9          35.4790   -25.7950    16.5290 h1         1 Y1Y       0.090700
     28 H10         36.3280   -25.0220    14.2860 hc         1 Y1Y       0.023700
     29 H11         37.9750   -24.8500    15.0640 hc         1 Y1Y       0.023700
     30 H12         37.1720   -26.6670    18.0230 hn         1 Y1Y       0.374000
     31 H13         38.3670   -26.1140    17.0770 hn         1 Y1Y       0.374000
     32 H16         35.4250   -28.4300    14.3080 ho         1 Y1Y       0.429000
@<TRIPOS>BOND
     1     1     2 1   
     2     1    19 1   
     3     1    20 1   
     4     1    21 1   
     5     2     3 2   
     6     2    18 1   
     7     3     4 1   
     8     3    22 1   
     9     4     5 2   
    10     4    23 1   
    11     5     6 1   
    12     5    18 1   
    13     6    13 1   
    14     6    17 2   
    15     7     8 1   
    16     7    13 1   
    17     7    24 1   
    18     7    25 1   
    19     8     9 1   
    20     8    16 1   
    21     8    26 1   
    22     9    10 1   
    23     9    12 1   
    24     9    27 1   
    25    10    11 1   
    26    10    28 1   
    27    10    29 1   
    28    11    14 1   
    29    11    15 1   
    30    12    30 1   
    31    12    31 1   
    32    16    32 1   
@<TRIPOS>SUBSTRUCTURE
     1 Y1Y         1 TEMP              0 ****  ****    0 ROOT
