@<TRIPOS>MOLECULE
Y1Y
   32    32     1     0     0
SMALL
bcc


@<TRIPOS>ATOM
      1 C01         35.1260   -35.7640    14.4150 c3         1 Y1Y      -0.022800
      2 C02         35.3120   -34.2960    14.5780 cc         1 Y1Y      -0.065400
      3 C03         35.5490   -33.3650    13.6030 cd         1 Y1Y      -0.172000
      4 C04         35.6770   -32.0510    14.1070 cd         1 Y1Y      -0.080000
      5 C05         35.5330   -31.9960    15.4650 cc         1 Y1Y      -0.136700
      6 C06         35.6010   -30.8550    16.3720 c          1 Y1Y       0.687700
      7 C08         35.9570   -28.5160    16.4940 c3         1 Y1Y       0.098400
      8 C09         36.3120   -27.4090    15.5150 c3         1 Y1Y       0.100100
      9 C10         36.4340   -26.0460    16.2190 c3         1 Y1Y       0.188500
     10 C11         36.8740   -24.9660    15.2380 c3         1 Y1Y      -0.194400
     11 C12         36.8350   -23.5440    15.8300 c          1 Y1Y       0.943600
     12 N15         37.3540   -26.0520    17.3480 n8         1 Y1Y      -0.861800
     13 O07         35.8590   -29.7260    15.7310 os         1 Y1Y      -0.421900
     14 O13         35.8070   -23.2350    16.4700 o          1 Y1Y      -0.844800
     15 O14         37.8130   -22.8070    15.5920 o          1 Y1Y      -0.844800
     16 O16         35.3210   -27.2970    14.5170 oh         1 Y1Y      -0.574800
     17 O17         35.4410   -30.9440    17.5670 o          1 Y1Y      -0.547000
     18 S18         35.2410   -33.5590    16.1280 ss         1 Y1Y      -0.010800
     19 H1          35.8540   -36.3300    14.9990 hc         1 Y1Y       0.045367
     20 H2          34.1330   -36.0810    14.7350 hc         1 Y1Y       0.045367
     21 H3          35.2460   -36.0400    13.3690 hc         1 Y1Y       0.045367
     22 H4          35.6300   -33.6220    12.5560 ha         1 Y1Y       0.150000
     23 H5          35.8670   -31.1850    13.4880 ha         1 Y1Y       0.167000
     24 H6          36.7250   -28.6310    17.2590 h1         1 Y1Y       0.056700
     25 H7          35.0020   -28.3040    16.9850 h1         1 Y1Y       0.056700
     26 H8          37.2910   -27.6480    15.0700 h1         1 Y1Y       0.026700
     27 H9          35.4450   -25.7790    16.6070 h1         1 Y1Y       0.090700
     28 H10         36.2230   -24.9830    14.3590 hc         1 Y1Y       0.023700
     29 H11         37.8810   -25.2010    14.8780 hc         1 Y1Y       0.023700
     30 H12         37.0130   -26.6270    18.1060 hn         1 Y1Y       0.318800
     31 H13         38.2510   -26.4340    17.0710 hn         1 Y1Y       0.318800
     32 H16         35.3520   -28.0790    13.9580 ho         1 Y1Y       0.390000
@<TRIPOS>BOND
     1     1     2 1   
     2     1    19 1   
     3     1    20 1   
     4     1    21 1   
     5     2     3 2   
     6     2    18 1   
     7     3     4 1   
     8     3    22 1   
     9     4     5 2   
    10     4    23 1   
    11     5     6 1   
    12     5    18 1   
    13     6    13 1   
    14     6    17 2   
    15     7     8 1   
    16     7    13 1   
    17     7    24 1   
    18     7    25 1   
    19     8     9 1   
    20     8    16 1   
    21     8    26 1   
    22     9    10 1   
    23     9    12 1   
    24     9    27 1   
    25    10    11 1   
    26    10    28 1   
    27    10    29 1   
    28    11    14 1   
    29    11    15 1   
    30    12    30 1   
    31    12    31 1   
    32    16    32 1   
@<TRIPOS>SUBSTRUCTURE
     1 Y1Y         1 TEMP              0 ****  ****    0 ROOT
