@<TRIPOS>MOLECULE
Y1Z
   60    65     1     0     0
SMALL
No Charge or Current Charge


@<TRIPOS>ATOM
      1 OBD          3.2420     1.6820     2.6040 o          1 Y1Z      -0.523500
      2 SBB          1.8820     1.2760     2.2460 sy         1 Y1Z       1.176600
      3 OBC          0.8480     1.0540     3.2590 o          1 Y1Z      -0.523500
      4 CBE          1.2560     2.3150     0.9210 ca         1 Y1Z      -0.293500
      5 CBF         -0.0470     2.8500     1.0320 ca         1 Y1Z      -0.006000
      6 CBG         -0.5660     3.6660     0.0130 ca         1 Y1Z      -0.132000
      7 CBH          0.2030     3.9470    -1.1270 ca         1 Y1Z      -0.052000
      8 CBI          1.4940     3.4090    -1.2450 ca         1 Y1Z      -0.123000
      9 CBJ          2.0270     2.5970    -0.2290 ca         1 Y1Z       0.201000
     10 Cl           3.6530     1.9570    -0.4700 cl         1 Y1Z      -0.177000
     11 NAU          2.1310    -0.2250     1.5610 nu         1 Y1Z      -0.897100
     12 CAS          1.3150    -0.9100     0.6610 ca         1 Y1Z       0.310000
     13 CAR          1.9340    -1.6580    -0.3820 ca         1 Y1Z       0.203000
     14 NAV          3.3560    -1.7220    -0.4900 nh         1 Y1Z      -0.788400
     15 CBA          4.0180    -1.4880    -1.8130 c6         1 Y1Z       0.140300
     16 CAZ          5.5410    -1.1990    -1.6610 c6         1 Y1Z       0.151100
     17 OAY          6.1820    -2.2360    -0.8810 os         1 Y1Z      -0.445000
     18 CAX          5.6240    -2.3530     0.4500 c6         1 Y1Z       0.151100
     19 CAW          4.1030    -2.6840     0.3830 c6         1 Y1Z       0.140300
     20 CAQ          1.1250    -2.3300    -1.3170 ca         1 Y1Z      -0.109000
     21 CAP         -0.2760    -2.2670    -1.2290 ca         1 Y1Z      -0.092000
     22 CAO         -0.8900    -1.5310    -0.1990 ca         1 Y1Z      -0.125500
     23 CAT         -0.0890    -0.8520     0.7410 ca         1 Y1Z      -0.130000
     24 CAG         -2.3460    -1.4340    -0.1290 cc         1 Y1Z       0.391500
     25 CAD         -2.9940    -0.2090    -0.6630 ca         1 Y1Z      -0.079000
     26 CAC         -2.2620     0.8340    -1.2770 ca         1 Y1Z      -0.076000
     27 CAB         -2.9260     1.9660    -1.7820 ca         1 Y1Z      -0.109000
     28 CAA         -4.3230     2.0730    -1.6750 ca         1 Y1Z      -0.091000
     29 CAF         -5.0580     1.0410    -1.0700 ca         1 Y1Z      -0.071000
     30 CAE         -4.3890    -0.0920    -0.5750 ca         1 Y1Z       0.014000
     31 CAJ         -5.0660    -1.2070     0.0380 cc         1 Y1Z      -0.123000
     32 NAI         -4.3530    -2.2910     0.4740 na         1 Y1Z       0.096000
     33 NAH         -2.9800    -2.4820     0.4230 nd         1 Y1Z      -0.437800
     34 NAM         -6.3570    -1.3750     0.2480 nd         1 Y1Z      -0.072000
     35 NAL         -6.5130    -2.6050     0.8470 nd         1 Y1Z      -0.377700
     36 CAK         -5.3110    -3.1510     0.9790 cc         1 Y1Z       0.382800
     37 CAN         -5.0310    -4.4970     1.5860 c3         1 Y1Z      -0.099400
     38 H1          -0.6640     2.6440     1.9060 ha         1 Y1Z       0.150000
     39 H2          -1.5680     4.0790     0.1070 ha         1 Y1Z       0.126000
     40 H3          -0.2010     4.5770    -1.9170 ha         1 Y1Z       0.123000
     41 H4           2.0880     3.6220    -2.1300 ha         1 Y1Z       0.134000
     42 H5           3.0950    -0.2100     1.2520 hn         1 Y1Z       0.536000
     43 H6           3.8920    -2.3680    -2.4600 h1         1 Y1Z       0.050700
     44 H7           3.5490    -0.6340    -2.3250 h1         1 Y1Z       0.050700
     45 H8           6.0120    -1.1500    -2.6520 h1         1 Y1Z       0.054700
     46 H9           5.6900    -0.2290    -1.1650 h1         1 Y1Z       0.054700
     47 H10          6.1550    -3.1470     0.9950 h1         1 Y1Z       0.054700
     48 H11          5.7780    -1.4080     0.9900 h1         1 Y1Z       0.054700
     49 H12          3.6960    -2.6690     1.4050 h1         1 Y1Z       0.050700
     50 H13          3.9800    -3.7070    -0.0000 h1         1 Y1Z       0.050700
     51 H14          1.5830    -2.9080    -2.1140 ha         1 Y1Z       0.124000
     52 H15         -0.8860    -2.7890    -1.9640 ha         1 Y1Z       0.130000
     53 H16         -0.5680    -0.2860     1.5330 ha         1 Y1Z       0.146000
     54 H17         -1.1800     0.7760    -1.3740 ha         1 Y1Z       0.126000
     55 H18         -2.3580     2.7610    -2.2590 ha         1 Y1Z       0.117000
     56 H19         -4.8340     2.9510    -2.0650 ha         1 Y1Z       0.123000
     57 H20         -6.1400     1.1190    -0.9940 ha         1 Y1Z       0.145000
     58 H21         -4.5380    -5.1520     0.8590 hc         1 Y1Z       0.064700
     59 H22         -4.3750    -4.3970     2.4580 hc         1 Y1Z       0.064700
     60 H23         -5.9580    -4.9840     1.9110 hc         1 Y1Z       0.064700
@<TRIPOS>BOND
     1     1     2 2   
     2     2     3 2   
     3     2     4 1   
     4     2    11 1   
     5     4     5 ar  
     6     4     9 ar  
     7     5     6 ar  
     8     5    38 1   
     9     6     7 ar  
    10     6    39 1   
    11     7     8 ar  
    12     7    40 1   
    13     8     9 ar  
    14     8    41 1   
    15     9    10 1   
    16    11    12 1   
    17    11    42 1   
    18    12    13 ar  
    19    12    23 ar  
    20    13    14 1   
    21    13    20 ar  
    22    14    15 1   
    23    14    19 1   
    24    15    16 1   
    25    15    43 1   
    26    15    44 1   
    27    16    17 1   
    28    16    45 1   
    29    16    46 1   
    30    17    18 1   
    31    18    19 1   
    32    18    47 1   
    33    18    48 1   
    34    19    49 1   
    35    19    50 1   
    36    20    21 ar  
    37    20    51 1   
    38    21    22 ar  
    39    21    52 1   
    40    22    23 ar  
    41    22    24 1   
    42    23    53 1   
    43    24    25 1   
    44    24    33 2   
    45    25    26 ar  
    46    25    30 ar  
    47    26    27 ar  
    48    26    54 1   
    49    27    28 ar  
    50    27    55 1   
    51    28    29 ar  
    52    28    56 1   
    53    29    30 ar  
    54    29    57 1   
    55    30    31 1   
    56    31    32 1   
    57    31    34 2   
    58    32    33 1   
    59    32    36 1   
    60    34    35 1   
    61    35    36 2   
    62    36    37 1   
    63    37    58 1   
    64    37    59 1   
    65    37    60 1   
@<TRIPOS>SUBSTRUCTURE
     1 Y1Z         1 TEMP              0 ****  ****    0 ROOT
