@<TRIPOS>MOLECULE
Y1Z
   60    65     1     0     0
SMALL
bcc


@<TRIPOS>ATOM
      1 OBD          3.1950     1.9980     2.4150 o          1 Y1Z      -0.594300
      2 SBB          1.9040     1.5170     1.9680 sy         1 Y1Z       1.318200
      3 OBC          0.8120     1.4020     2.9160 o          1 Y1Z      -0.594300
      4 CBE          1.3200     2.5410     0.6350 ca         1 Y1Z      -0.293500
      5 CBF          0.0950     3.1780     0.7890 ca         1 Y1Z      -0.024000
      6 CBG         -0.3740     4.0300    -0.1980 ca         1 Y1Z      -0.150000
      7 CBH          0.3750     4.2340    -1.3470 ca         1 Y1Z      -0.070000
      8 CBI          1.5970     3.5990    -1.5100 ca         1 Y1Z      -0.141000
      9 CBJ          2.0750     2.7640    -0.5150 ca         1 Y1Z       0.109400
     10 CL           3.6120     2.0150    -0.7490 cl         1 Y1Z      -0.085400
     11 NAU          2.1930     0.0300     1.3260 nu         1 Y1Z      -0.703500
     12 CAS          1.3050    -0.7180     0.5460 ca         1 Y1Z       0.171600
     13 CAR          1.9070    -1.6430    -0.3230 ca         1 Y1Z       0.064600
     14 NAV          3.3210    -1.6990    -0.3240 nh         1 Y1Z      -0.650000
     15 CBA          3.9470    -1.6640    -1.6380 c6         1 Y1Z       0.140300
     16 CAZ          5.4460    -1.5170    -1.4600 c6         1 Y1Z       0.127900
     17 OAY          5.9760    -2.5670    -0.6830 os         1 Y1Z      -0.398600
     18 CAX          5.3740    -2.6140     0.5910 c6         1 Y1Z       0.127900
     19 CAW          3.8690    -2.7800     0.4940 c6         1 Y1Z       0.140300
     20 CAQ          1.1070    -2.4500    -1.1160 ca         1 Y1Z      -0.127000
     21 CAP         -0.2760    -2.3500    -1.0620 ca         1 Y1Z      -0.110000
     22 CAO         -0.8640    -1.4330    -0.2040 ca         1 Y1Z      -0.125500
     23 CAT         -0.0780    -0.6160     0.6060 ca         1 Y1Z      -0.148000
     24 CAG         -2.3410    -1.3580    -0.1170 cc         1 Y1Z       0.456800
     25 CAD         -3.0570    -0.1440    -0.4780 ca         1 Y1Z      -0.144300
     26 CAC         -2.4090     0.9960    -0.9700 ca         1 Y1Z      -0.094000
     27 CAB         -3.1400     2.1100    -1.3230 ca         1 Y1Z      -0.127000
     28 CAA         -4.5300     2.1200    -1.1890 ca         1 Y1Z      -0.109000
     29 CAF         -5.1920     1.0060    -0.7170 ca         1 Y1Z      -0.089000
     30 CAE         -4.4600    -0.1290    -0.3690 ca         1 Y1Z       0.014000
     31 CAJ         -5.0700    -1.3410     0.0820 cc         1 Y1Z      -0.072300
     32 NAI         -4.2560    -2.4020     0.3470 na         1 Y1Z       0.045300
     33 NAH         -2.9190    -2.4440     0.2680 nd         1 Y1Z      -0.437800
     34 NAM         -6.3110    -1.6830     0.2940 nd         1 Y1Z      -0.072000
     35 NAL         -6.3060    -2.9770     0.7020 nd         1 Y1Z      -0.377700
     36 CAK         -5.0770    -3.4140     0.7370 cc         1 Y1Z       0.382800
     37 CAN         -4.6040    -4.7590     1.1220 c3         1 Y1Z      -0.099400
     38 H1          -0.4970     3.0140     1.6780 ha         1 Y1Z       0.168000
     39 H2          -1.3230     4.5290    -0.0650 ha         1 Y1Z       0.144000
     40 H3           0.0120     4.8930    -2.1250 ha         1 Y1Z       0.141000
     41 H4           2.1820     3.7580    -2.4050 ha         1 Y1Z       0.152000
     42 H5           3.1580    -0.1270     1.0250 hn         1 Y1Z       0.480800
     43 H6           3.7380    -2.5700    -2.2240 h1         1 Y1Z       0.050700
     44 H7           3.5610    -0.8110    -2.1990 h1         1 Y1Z       0.050700
     45 H8           5.9420    -1.5450    -2.4310 h1         1 Y1Z       0.054700
     46 H9           5.6630    -0.5450    -0.9950 h1         1 Y1Z       0.054700
     47 H10          5.8080    -3.4580     1.1280 h1         1 Y1Z       0.054700
     48 H11          5.6010    -1.6990     1.1570 h1         1 Y1Z       0.054700
     49 H12          3.4400    -2.7320     1.4970 h1         1 Y1Z       0.050700
     50 H13          3.6190    -3.7650     0.0740 h1         1 Y1Z       0.050700
     51 H14          1.5660    -3.1650    -1.7860 ha         1 Y1Z       0.142000
     52 H15         -0.8920    -2.9840    -1.6860 ha         1 Y1Z       0.148000
     53 H16         -0.5570     0.0710     1.2900 ha         1 Y1Z       0.164000
     54 H17         -1.3340     1.0020    -1.0900 ha         1 Y1Z       0.144000
     55 H18         -2.6340     2.9810    -1.7150 ha         1 Y1Z       0.135000
     56 H19         -5.0900     3.0020    -1.4690 ha         1 Y1Z       0.141000
     57 H20         -6.2700     1.0010    -0.6250 ha         1 Y1Z       0.163000
     58 H21         -4.0850    -5.2470     0.2970 hc         1 Y1Z       0.064700
     59 H22         -3.9130    -4.7090     1.9650 hc         1 Y1Z       0.064700
     60 H23         -5.4540    -5.3740     1.4080 hc         1 Y1Z       0.064700
@<TRIPOS>BOND
     1     1     2 2   
     2     2     3 2   
     3     2     4 1   
     4     2    11 1   
     5     4     5 ar  
     6     4     9 ar  
     7     5     6 ar  
     8     5    38 1   
     9     6     7 ar  
    10     6    39 1   
    11     7     8 ar  
    12     7    40 1   
    13     8     9 ar  
    14     8    41 1   
    15     9    10 1   
    16    11    12 1   
    17    11    42 1   
    18    12    13 ar  
    19    12    23 ar  
    20    13    14 1   
    21    13    20 ar  
    22    14    15 1   
    23    14    19 1   
    24    15    16 1   
    25    15    43 1   
    26    15    44 1   
    27    16    17 1   
    28    16    45 1   
    29    16    46 1   
    30    17    18 1   
    31    18    19 1   
    32    18    47 1   
    33    18    48 1   
    34    19    49 1   
    35    19    50 1   
    36    20    21 ar  
    37    20    51 1   
    38    21    22 ar  
    39    21    52 1   
    40    22    23 ar  
    41    22    24 1   
    42    23    53 1   
    43    24    25 1   
    44    24    33 2   
    45    25    26 ar  
    46    25    30 ar  
    47    26    27 ar  
    48    26    54 1   
    49    27    28 ar  
    50    27    55 1   
    51    28    29 ar  
    52    28    56 1   
    53    29    30 ar  
    54    29    57 1   
    55    30    31 1   
    56    31    32 1   
    57    31    34 2   
    58    32    33 1   
    59    32    36 1   
    60    34    35 1   
    61    35    36 2   
    62    36    37 1   
    63    37    58 1   
    64    37    59 1   
    65    37    60 1   
@<TRIPOS>SUBSTRUCTURE
     1 Y1Z         1 TEMP              0 ****  ****    0 ROOT
