@<TRIPOS>MOLECULE
Y21
   49    53     1     0     0
SMALL
No Charge or Current Charge


@<TRIPOS>ATOM
      1 C1          87.0270   -56.2800    59.9310 ca         1 Y21       0.102000
      2 C2          86.3790   -55.0410    59.6630 ca         1 Y21       0.273000
      3 C3          86.0720   -54.2000    60.7760 ca         1 Y21       0.056100
      4 C12         85.6260   -52.3650    62.9390 c6         1 Y21       0.066700
      5 C13         86.4640   -54.0810    64.5790 c          1 Y21       0.572200
      6 C14         87.1040   -55.4170    64.7770 cc         1 Y21      -0.187400
      7 C16         84.7100   -52.4140    61.6970 c6         1 Y21       0.142600
      8 C17         86.7730   -51.3360    62.7350 c3         1 Y21      -0.098100
      9 C18         85.4710   -55.5970    57.3060 c5         1 Y21       0.241800
     10 C19         84.9510   -54.6150    56.2250 c5         1 Y21      -0.084400
     11 C20         86.1010   -53.5550    56.2410 c5         1 Y21      -0.085700
     12 C21         86.2250   -53.2900    57.7690 c5         1 Y21       0.248800
     13 C22         85.7610   -52.1890    55.5450 cx         1 Y21       0.112200
     14 C24         84.7780   -52.2110    54.3960 cx         1 Y21      -0.117400
     15 C25         84.3860   -51.5850    55.7220 cx         1 Y21      -0.117400
     16 C26         87.4570   -55.8990    66.1470 c          1 Y21       0.727200
     17 C4          86.4500   -54.5730    62.0970 ca         1 Y21       0.027600
     18 C5          87.0560   -55.8150    62.3180 ca         1 Y21      -0.061800
     19 C6          87.3480   -56.6610    61.2400 ca         1 Y21      -0.123000
     20 C7          87.3820   -56.2220    63.6780 cd         1 Y21      -0.155200
     21 F8          87.3680   -57.1320    58.9320 f          1 Y21      -0.197000
     22 N11         86.1670   -53.7230    63.2320 n          1 Y21      -0.298000
     23 N23         86.8960   -51.3000    55.4570 n8         1 Y21      -0.981200
     24 N9          86.0360   -54.6620    58.3190 nh         1 Y21      -0.863400
     25 O10         85.3910   -53.0080    60.5790 os         1 Y21      -0.339100
     26 O15         86.1980   -53.3020    65.4860 o          1 Y21      -0.532000
     27 O27         87.9840   -56.9990    66.2570 o          1 Y21      -0.698500
     28 O28         87.2250   -55.2180    67.1340 o          1 Y21      -0.698500
     29 H1          85.0090   -52.0190    63.7810 h1         1 Y21       0.090700
     30 H2          84.3680   -51.4060    61.4220 h1         1 Y21       0.056200
     31 H3          83.8220   -53.0220    61.9260 h1         1 Y21       0.056200
     32 H4          87.3980   -51.2620    63.6340 hc         1 Y21       0.042033
     33 H5          87.4250   -51.6200    61.9010 hc         1 Y21       0.042033
     34 H6          86.3760   -50.3360    62.5260 hc         1 Y21       0.042033
     35 H7          84.6610   -56.2200    57.7120 h1         1 Y21       0.040200
     36 H8          86.2460   -56.2550    56.8890 h1         1 Y21       0.040200
     37 H9          83.9740   -54.2210    56.5230 hc         1 Y21       0.048700
     38 H10         84.8310   -55.1100    55.2550 hc         1 Y21       0.048700
     39 H11         87.0260   -53.9890    55.8410 hc         1 Y21       0.050700
     40 H12         87.2030   -52.8630    58.0330 h1         1 Y21       0.041700
     41 H13         85.4370   -52.6090    58.1200 h1         1 Y21       0.041700
     42 H14         84.9600   -51.5400    53.5610 hc         1 Y21       0.073200
     43 H15         84.2920   -53.1400    54.1150 hc         1 Y21       0.073200
     44 H16         84.3070   -50.5010    55.7540 hc         1 Y21       0.073200
     45 H17         83.6490   -52.0930    56.3350 hc         1 Y21       0.073200
     46 H18         87.8330   -57.6190    61.4120 ha         1 Y21       0.132000
     47 H19         87.8520   -57.1920    63.8250 ha         1 Y21       0.202000
     48 H20         86.8040   -50.5520    56.1530 hn         1 Y21       0.400500
     49 H21         87.7460   -51.7960    55.7470 hn         1 Y21       0.400500
@<TRIPOS>BOND
     1     1     2 ar  
     2     1    19 ar  
     3     1    21 1   
     4     2     3 ar  
     5     2    24 1   
     6     3    17 ar  
     7     3    25 1   
     8     4     7 1   
     9     4     8 1   
    10     4    22 1   
    11     4    29 1   
    12     5     6 1   
    13     5    22 1   
    14     5    26 2   
    15     6    16 1   
    16     6    20 2   
    17     7    25 1   
    18     7    30 1   
    19     7    31 1   
    20     8    32 1   
    21     8    33 1   
    22     8    34 1   
    23     9    10 1   
    24     9    24 1   
    25     9    35 1   
    26     9    36 1   
    27    10    11 1   
    28    10    37 1   
    29    10    38 1   
    30    11    12 1   
    31    11    13 1   
    32    11    39 1   
    33    12    24 1   
    34    12    40 1   
    35    12    41 1   
    36    13    14 1   
    37    13    15 1   
    38    13    23 1   
    39    14    15 1   
    40    14    42 1   
    41    14    43 1   
    42    15    44 1   
    43    15    45 1   
    44    16    27 1   
    45    16    28 1   
    46    17    18 ar  
    47    17    22 1   
    48    18    19 ar  
    49    18    20 1   
    50    19    46 1   
    51    20    47 1   
    52    23    48 1   
    53    23    49 1   
@<TRIPOS>SUBSTRUCTURE
     1 Y21         1 TEMP              0 ****  ****    0 ROOT
