@<TRIPOS>MOLECULE
Y21
   49    53     1     0     0
SMALL
bcc


@<TRIPOS>ATOM
      1 C1          87.0180   -56.2130    59.9550 ca         1 Y21       0.066900
      2 C2          86.3380   -55.0120    59.6850 ca         1 Y21       0.134600
      3 C3          86.0420   -54.2060    60.7930 ca         1 Y21       0.056100
      4 C12         85.6870   -52.3930    62.8610 c6         1 Y21       0.066700
      5 C13         86.5420   -54.0270    64.4690 c          1 Y21       0.714700
      6 C14         87.0930   -55.3610    64.7000 cc         1 Y21      -0.187400
      7 C16         84.7060   -52.5420    61.7160 c6         1 Y21       0.119400
      8 C17         86.8060   -51.4040    62.5650 c3         1 Y21      -0.098100
      9 C18         85.4400   -55.5450    57.4100 c5         1 Y21       0.241800
     10 C19         84.9420   -54.5940    56.3330 c5         1 Y21      -0.084400
     11 C20         86.0140   -53.5050    56.3490 c5         1 Y21      -0.085700
     12 C21         86.2810   -53.3280    57.8480 c5         1 Y21       0.248800
     13 C22         85.7170   -52.1930    55.6490 cx         1 Y21       0.112200
     14 C24         84.8180   -52.1780    54.4510 cx         1 Y21      -0.117400
     15 C25         84.3550   -51.5820    55.7510 cx         1 Y21      -0.117400
     16 C26         87.2990   -55.8770    66.1210 c          1 Y21       0.937800
     17 C4          86.4500   -54.5620    62.0870 ca         1 Y21       0.027600
     18 C5          87.0820   -55.7910    62.3040 ca         1 Y21      -0.061800
     19 C6          87.3570   -56.6230    61.2150 ca         1 Y21      -0.141000
     20 C7          87.4000   -56.1490    63.6470 cd         1 Y21      -0.105200
     21 F8          87.3510   -57.0050    58.9210 f          1 Y21      -0.161900
     22 N11         86.2160   -53.7220    63.1600 n          1 Y21      -0.365000
     23 N23         86.7980   -51.2420    55.6130 n8         1 Y21      -0.870800
     24 N9          85.9600   -54.6310    58.4160 nh         1 Y21      -0.725000
     25 O10         85.3400   -53.0760    60.5680 os         1 Y21      -0.315900
     26 O15         86.4030   -53.1790    65.3410 o          1 Y21      -0.607500
     27 O27         88.3520   -56.5060    66.3300 o          1 Y21      -0.803800
     28 O28         86.3640   -55.6670    66.9110 o          1 Y21      -0.803800
     29 H1          85.1260   -52.0560    63.7310 h1         1 Y21       0.090700
     30 H2          84.3060   -51.5710    61.4300 h1         1 Y21       0.056200
     31 H3          83.8710   -53.1850    62.0170 h1         1 Y21       0.056200
     32 H4          87.4700   -51.3060    63.4230 hc         1 Y21       0.042033
     33 H5          87.4050   -51.7090    61.7060 hc         1 Y21       0.042033
     34 H6          86.3880   -50.4190    62.3530 hc         1 Y21       0.042033
     35 H7          84.6470   -56.1710    57.8240 h1         1 Y21       0.040200
     36 H8          86.2000   -56.2080    56.9840 h1         1 Y21       0.040200
     37 H9          83.9650   -54.1930    56.6100 hc         1 Y21       0.048700
     38 H10         84.8460   -55.0880    55.3670 hc         1 Y21       0.048700
     39 H11         86.9140   -53.9260    55.8820 hc         1 Y21       0.050700
     40 H12         87.3190   -53.0480    58.0510 h1         1 Y21       0.041700
     41 H13         85.6430   -52.5320    58.2440 h1         1 Y21       0.041700
     42 H14         85.0730   -51.5000    53.6460 hc         1 Y21       0.073200
     43 H15         84.3630   -53.1050    54.1270 hc         1 Y21       0.073200
     44 H16         84.3020   -50.5030    55.8240 hc         1 Y21       0.073200
     45 H17         83.5840   -52.1020    56.3060 hc         1 Y21       0.073200
     46 H18         87.8640   -57.5680    61.3640 ha         1 Y21       0.150000
     47 H19         87.8730   -57.1090    63.8160 ha         1 Y21       0.152000
     48 H20         87.0530   -50.9680    56.5540 hn         1 Y21       0.345300
     49 H21         87.6230   -51.6750    55.2120 hn         1 Y21       0.345300
@<TRIPOS>BOND
     1     1     2 ar  
     2     1    19 ar  
     3     1    21 1   
     4     2     3 ar  
     5     2    24 1   
     6     3    17 ar  
     7     3    25 1   
     8     4     7 1   
     9     4     8 1   
    10     4    22 1   
    11     4    29 1   
    12     5     6 1   
    13     5    22 1   
    14     5    26 2   
    15     6    16 1   
    16     6    20 2   
    17     7    25 1   
    18     7    30 1   
    19     7    31 1   
    20     8    32 1   
    21     8    33 1   
    22     8    34 1   
    23     9    10 1   
    24     9    24 1   
    25     9    35 1   
    26     9    36 1   
    27    10    11 1   
    28    10    37 1   
    29    10    38 1   
    30    11    12 1   
    31    11    13 1   
    32    11    39 1   
    33    12    24 1   
    34    12    40 1   
    35    12    41 1   
    36    13    14 1   
    37    13    15 1   
    38    13    23 1   
    39    14    15 1   
    40    14    42 1   
    41    14    43 1   
    42    15    44 1   
    43    15    45 1   
    44    16    27 1   
    45    16    28 1   
    46    17    18 ar  
    47    17    22 1   
    48    18    19 ar  
    49    18    20 1   
    50    19    46 1   
    51    20    47 1   
    52    23    48 1   
    53    23    49 1   
@<TRIPOS>SUBSTRUCTURE
     1 Y21         1 TEMP              0 ****  ****    0 ROOT
