@<TRIPOS>MOLECULE
Y22
   39    41     1     0     0
SMALL
No Charge or Current Charge


@<TRIPOS>ATOM
      1 F29          7.5960    -1.2470     1.1050 f          1 Y22      -0.119333
      2 CAW          7.0400    -0.7450    -0.0210 c3         1 Y22       0.355300
      3 F27          7.4870     0.5250    -0.1500 f          1 Y22      -0.119333
      4 F28          7.5560    -1.4520    -1.0530 f          1 Y22      -0.119333
      5 CAV          5.5080    -0.7950     0.0120 ca         1 Y22      -0.204300
      6 CAU          4.8120    -0.6900     1.2360 ca         1 Y22      -0.065500
      7 CAT          3.4080    -0.7260     1.2640 ca         1 Y22      -0.100500
      8 CAS          2.6730    -0.8630     0.0710 ca         1 Y22      -0.054300
      9 CAZ          3.3630    -0.9550    -1.1530 ca         1 Y22      -0.100500
     10 CAY          4.7670    -0.9190    -1.1840 ca         1 Y22      -0.065500
     11 CAR          1.1510    -0.9000     0.1020 c3         1 Y22       0.277100
     12 NAQ          0.6090     0.4560    -0.0510 nu         1 Y22      -0.935100
     13 CAP         -0.7160     0.8710    -0.0360 ca         1 Y22       0.602900
     14 NAO         -1.5740    -0.1710    -0.0400 nb         1 Y22      -0.813000
     15 CAN         -2.9010     0.1320    -0.0300 ca         1 Y22       0.279000
     16 CAM         -3.8460    -0.9130    -0.0340 ca         1 Y22      -0.056000
     17 CAH         -5.2340    -0.6590    -0.0280 ca         1 Y22      -0.194300
     18 CAI         -6.2300    -1.8250    -0.0230 c3         1 Y22       0.352300
     19 FAK         -6.4190    -2.3030     1.2270 f          1 Y22      -0.123667
     20 FAJ         -7.4470    -1.4740    -0.5000 f          1 Y22      -0.123667
     21 FAL         -5.8040    -2.8610    -0.7820 f          1 Y22      -0.123667
     22 CAG         -5.6770     0.6780    -0.0030 ca         1 Y22      -0.129000
     23 CAF         -4.7510     1.7350     0.0010 ca         1 Y22      -0.048000
     24 CAE         -3.3660     1.4900    -0.0130 ca         1 Y22       0.184000
     25 NAD         -2.5020     2.5390    -0.0080 nb         1 Y22      -0.602000
     26 CAC         -1.1550     2.2400    -0.0190 ca         1 Y22       0.243500
     27 CAB         -0.1220     3.3850    -0.0110 c          1 Y22       0.622500
     28 OAA          1.0770     3.1200     0.0180 o          1 Y22      -0.680500
     29 OBA         -0.5210     4.5460    -0.0310 o          1 Y22      -0.680500
     30 H1           5.3570    -0.5780     2.1720 ha         1 Y22       0.122500
     31 H2           2.8880    -0.6450     2.2170 ha         1 Y22       0.127500
     32 H3           2.8080    -1.0510    -2.0830 ha         1 Y22       0.127500
     33 H4           5.2760    -0.9860    -2.1440 ha         1 Y22       0.122500
     34 H5           0.7870    -1.5490    -0.7060 h1         1 Y22       0.050700
     35 H6           0.8180    -1.3360     1.0540 h1         1 Y22       0.050700
     36 H7           1.2680     1.2450    -0.0190 hn         1 Y22       0.571000
     37 H8          -3.4840    -1.9380    -0.0400 ha         1 Y22       0.130000
     38 H9          -6.7400     0.9100     0.0150 ha         1 Y22       0.113000
     39 H10         -5.1120     2.7600     0.0180 ha         1 Y22       0.129000
@<TRIPOS>BOND
     1     1     2 1   
     2     2     3 1   
     3     2     4 1   
     4     2     5 1   
     5     5     6 ar  
     6     5    10 ar  
     7     6     7 ar  
     8     6    30 1   
     9     7     8 ar  
    10     7    31 1   
    11     8     9 ar  
    12     8    11 1   
    13     9    10 ar  
    14     9    32 1   
    15    10    33 1   
    16    11    12 1   
    17    11    34 1   
    18    11    35 1   
    19    12    13 1   
    20    12    36 1   
    21    13    14 ar  
    22    13    26 ar  
    23    14    15 ar  
    24    15    16 ar  
    25    15    24 ar  
    26    16    17 ar  
    27    16    37 1   
    28    17    18 1   
    29    17    22 ar  
    30    18    19 1   
    31    18    20 1   
    32    18    21 1   
    33    22    23 ar  
    34    22    38 1   
    35    23    24 ar  
    36    23    39 1   
    37    24    25 ar  
    38    25    26 ar  
    39    26    27 1   
    40    27    28 1   
    41    27    29 1   
@<TRIPOS>SUBSTRUCTURE
     1 Y22         1 TEMP              0 ****  ****    0 ROOT
