@<TRIPOS>MOLECULE
Y22
   39    41     1     0     0
SMALL
bcc


@<TRIPOS>ATOM
      1 F29          7.2190    -1.3690     1.5020 f          1 Y22      -0.240633
      2 CAW          6.8910    -0.7990     0.3340 c3         1 Y22       0.719200
      3 F27          7.3690     0.4550     0.3790 f          1 Y22      -0.240633
      4 F28          7.5730    -1.4400    -0.6200 f          1 Y22      -0.240633
      5 CAV          5.4140    -0.8180     0.1010 ca         1 Y22      -0.204300
      6 CAU          4.5690    -0.3560     1.1090 ca         1 Y22      -0.083500
      7 CAT          3.2020    -0.3400     0.9090 ca         1 Y22      -0.118500
      8 CAS          2.6510    -0.7810    -0.2940 ca         1 Y22      -0.054300
      9 CAZ          3.5040    -1.2350    -1.2910 ca         1 Y22      -0.118500
     10 CAY          4.8790    -1.2570    -1.1000 ca         1 Y22      -0.083500
     11 CAR          1.1620    -0.7760    -0.4990 c3         1 Y22       0.277100
     12 NAQ          0.6320     0.5460    -0.2840 nu         1 Y22      -0.879900
     13 CAP         -0.6740     0.7960    -0.1490 ca         1 Y22       0.602900
     14 NAO         -1.5260    -0.2050    -0.1920 nb         1 Y22      -0.813000
     15 CAN         -2.8340     0.0740    -0.0230 ca         1 Y22       0.344300
     16 CAM         -3.7820    -0.9690    -0.0590 ca         1 Y22      -0.139300
     17 CAH         -5.1140    -0.6880     0.1100 ca         1 Y22      -0.194300
     18 CAI         -6.1420    -1.7750     0.0820 c3         1 Y22       0.716200
     19 FAK         -6.7780    -1.8810     1.2580 f          1 Y22      -0.244967
     20 FAJ         -7.0870    -1.5340    -0.8390 f          1 Y22      -0.244967
     21 FAL         -5.6270    -2.9760    -0.1920 f          1 Y22      -0.244967
     22 CAG         -5.5600     0.6330     0.3240 ca         1 Y22      -0.147000
     23 CAF         -4.6490     1.6560     0.3580 ca         1 Y22      -0.131300
     24 CAE         -3.2790     1.3940     0.1840 ca         1 Y22       0.249300
     25 NAD         -2.3880     2.4190     0.2100 nb         1 Y22      -0.602000
     26 CAC         -1.1290     2.1710     0.0520 ca         1 Y22       0.243500
     27 CAB         -0.1700     3.3730     0.0780 c          1 Y22       0.833100
     28 OAA          1.0340     3.1350    -0.1780 o          1 Y22      -0.785800
     29 OBA         -0.6700     4.4690     0.3440 o          1 Y22      -0.785800
     30 H1           4.9680    -0.0100     2.0540 ha         1 Y22       0.140500
     31 H2           2.5570     0.0150     1.7030 ha         1 Y22       0.145500
     32 H3           3.0960    -1.5760    -2.2340 ha         1 Y22       0.145500
     33 H4           5.5120    -1.6150    -1.9000 ha         1 Y22       0.140500
     34 H5           0.9230    -1.1440    -1.5020 h1         1 Y22       0.050700
     35 H6           0.6920    -1.4720     0.2010 h1         1 Y22       0.050700
     36 H7           1.2130     1.3840    -0.3380 hn         1 Y22       0.515800
     37 H8          -3.4230    -1.9760    -0.2260 ha         1 Y22       0.148000
     38 H9          -6.6120     0.8470     0.4590 ha         1 Y22       0.131000
     39 H10         -4.9690     2.6780     0.5190 ha         1 Y22       0.147000
@<TRIPOS>BOND
     1     1     2 1   
     2     2     3 1   
     3     2     4 1   
     4     2     5 1   
     5     5     6 ar  
     6     5    10 ar  
     7     6     7 ar  
     8     6    30 1   
     9     7     8 ar  
    10     7    31 1   
    11     8     9 ar  
    12     8    11 1   
    13     9    10 ar  
    14     9    32 1   
    15    10    33 1   
    16    11    12 1   
    17    11    34 1   
    18    11    35 1   
    19    12    13 1   
    20    12    36 1   
    21    13    14 ar  
    22    13    26 ar  
    23    14    15 ar  
    24    15    16 ar  
    25    15    24 ar  
    26    16    17 ar  
    27    16    37 1   
    28    17    18 1   
    29    17    22 ar  
    30    18    19 1   
    31    18    20 1   
    32    18    21 1   
    33    22    23 ar  
    34    22    38 1   
    35    23    24 ar  
    36    23    39 1   
    37    24    25 ar  
    38    25    26 ar  
    39    26    27 1   
    40    27    28 1   
    41    27    29 1   
@<TRIPOS>SUBSTRUCTURE
     1 Y22         1 TEMP              0 ****  ****    0 ROOT
