@<TRIPOS>MOLECULE
Y24
   87    91     1     0     0
SMALL
abcg2


@<TRIPOS>ATOM
      1 C11         32.2150    48.4300   -11.3960 c3         1 Y24      -0.113100
      2 C01         31.5000    47.7920   -10.2140 c3         1 Y24       0.136700
      3 C02         30.9830    46.3750   -10.5180 c3         1 Y24      -0.100400
      4 C03         30.1980    46.1480   -11.8060 c3         1 Y24       0.126700
      5 C04         29.9330    44.6570   -12.0810 c3         1 Y24      -0.108400
      6 C05         31.0510    43.8300   -12.7420 c3         1 Y24       0.142700
      7 C06         32.1750    43.3910   -11.7980 c3         1 Y24      -0.112400
      8 C07         32.8650    42.0790   -12.2040 c3         1 Y24       0.140700
      9 C08         33.6660    42.1510   -13.5030 c3         1 Y24      -0.106400
     10 C09         34.2970    40.8290   -13.9290 c3         1 Y24       0.109000
     11 C22         29.8240    49.7610   -10.3530 c5         1 Y24       0.101000
     12 C23         30.1350    48.5990    -8.3470 c          1 Y24       0.553000
     13 C24         29.0940    49.6640    -8.0750 c5         1 Y24      -0.169400
     14 C25         29.2740    50.6390    -9.2290 c5         1 Y24      -0.096400
     15 C26         27.9290    46.6800   -10.7770 c5         1 Y24       0.094000
     16 C27         26.6250    47.1010   -11.4570 c5         1 Y24      -0.095400
     17 C28         27.0810    48.0290   -12.5770 c5         1 Y24      -0.170400
     18 C29         28.4940    47.5680   -12.8740 c          1 Y24       0.557000
     19 C30         32.5250    45.2450   -14.2330 c          1 Y24       0.569000
     20 C31         32.5750    45.5190   -15.7220 c5         1 Y24      -0.168400
     21 C32         31.1710    45.1820   -16.2030 c5         1 Y24      -0.094400
     22 C33         30.7070    44.1310   -15.2000 c5         1 Y24       0.098000
     23 C34         33.0820    40.5960   -10.1730 c5         1 Y24       0.098000
     24 C35         34.2730    40.1930    -9.3070 c5         1 Y24      -0.090400
     25 C36         35.1510    41.4380    -9.3220 c5         1 Y24      -0.169400
     26 C37         34.7810    42.1370   -10.6150 c          1 Y24       0.559000
     27 C38         32.2050    39.9460   -15.0260 c5         1 Y24       0.095000
     28 C39         33.2960    38.6220   -13.4280 c          1 Y24       0.562000
     29 C40         32.0440    37.8740   -13.8360 c5         1 Y24      -0.171400
     30 C41         31.6340    38.5330   -15.1470 c5         1 Y24      -0.092400
     31 N03         30.5070    48.6930    -9.6420 n          1 Y24      -0.415800
     32 N04         28.9300    46.8550   -11.8140 n          1 Y24      -0.412800
     33 N05         31.4660    44.4410   -13.9980 n          1 Y24      -0.424800
     34 N06         33.6540    41.5670   -11.0920 n          1 Y24      -0.414800
     35 N07         33.3280    39.7770   -14.1240 n          1 Y24      -0.418800
     36 O02         30.5590    47.7810    -7.5450 o          1 Y24      -0.563000
     37 O03         29.1360    47.8130   -13.8840 o          1 Y24      -0.563000
     38 O04         33.3270    45.6640   -13.4130 o          1 Y24      -0.548000
     39 O06         35.3890    43.0680   -11.1200 o          1 Y24      -0.548000
     40 H1          32.6960    49.3640   -11.1040 hc         1 Y24       0.051700
     41 H2          32.9880    47.7530   -11.7580 hc         1 Y24       0.051700
     42 H3          31.5500    48.6390   -12.2350 hc         1 Y24       0.051700
     43 H4          32.2480    47.6540    -9.4290 h1         1 Y24       0.067700
     44 H5          30.4160    46.0050    -9.6590 hc         1 Y24       0.060700
     45 H6          31.8700    45.7410   -10.5670 hc         1 Y24       0.060700
     46 H7          30.7620    46.5550   -12.6440 h1         1 Y24       0.093700
     47 H8          29.0670    44.6020   -12.7470 hc         1 Y24       0.044700
     48 H9          29.6350    44.1440   -11.1610 hc         1 Y24       0.044700
     49 H10         30.5500    42.9010   -13.0430 h1         1 Y24       0.031700
     50 H11         32.9170    44.1710   -11.6440 hc         1 Y24       0.074700
     51 H12         31.7050    43.2080   -10.8280 hc         1 Y24       0.074700
     52 H13         32.0760    41.3340   -12.3510 h1         1 Y24       0.036700
     53 H14         34.4550    42.8970   -13.4270 hc         1 Y24       0.067200
     54 H15         33.0010    42.4940   -14.2980 hc         1 Y24       0.067200
     55 H16         35.0240    40.4870   -13.1940 h1         1 Y24       0.063200
     56 H17         34.8410    40.9910   -14.8650 h1         1 Y24       0.063200
     57 H18         29.0180    49.3660   -10.9740 h1         1 Y24       0.048700
     58 H19         30.5040    50.3070   -11.0050 h1         1 Y24       0.048700
     59 H20         29.2260    50.1040    -7.0880 hc         1 Y24       0.072200
     60 H21         28.1060    49.1910    -8.0920 hc         1 Y24       0.072200
     61 H22         30.0060    51.4030    -8.9640 hc         1 Y24       0.055200
     62 H23         28.3550    51.1450    -9.5210 hc         1 Y24       0.055200
     63 H24         28.1550    47.3060    -9.9100 h1         1 Y24       0.050200
     64 H25         27.9000    45.6450   -10.4310 h1         1 Y24       0.050200
     65 H26         25.9340    47.5710   -10.7590 hc         1 Y24       0.054700
     66 H27         26.1270    46.2260   -11.8770 hc         1 Y24       0.054700
     67 H28         27.1120    49.0750   -12.2590 hc         1 Y24       0.074200
     68 H29         26.4610    47.9830   -13.4720 hc         1 Y24       0.074200
     69 H30         33.3270    44.8550   -16.1620 hc         1 Y24       0.076200
     70 H31         32.8870    46.5430   -15.9240 hc         1 Y24       0.076200
     71 H32         31.1350    44.8180   -17.2280 hc         1 Y24       0.064200
     72 H33         30.5320    46.0640   -16.1370 hc         1 Y24       0.064200
     73 H34         29.6350    44.1840   -15.0060 h1         1 Y24       0.039200
     74 H35         30.9320    43.1130   -15.5370 h1         1 Y24       0.039200
     75 H36         32.2820    41.0500    -9.5780 h1         1 Y24       0.041700
     76 H37         32.6560    39.7540   -10.7170 h1         1 Y24       0.041700
     77 H38         34.7970    39.3580    -9.7720 hc         1 Y24       0.063200
     78 H39         33.9710    39.8850    -8.3070 hc         1 Y24       0.063200
     79 H40         36.2200    41.2340    -9.2760 hc         1 Y24       0.075200
     80 H41         34.9150    42.1140    -8.4950 hc         1 Y24       0.075200
     81 H42         32.5390    40.3520   -15.9830 h1         1 Y24       0.041700
     82 H43         31.4710    40.6450   -14.6110 h1         1 Y24       0.041700
     83 H44         31.2940    38.0240   -13.0540 hc         1 Y24       0.073700
     84 H45         32.2280    36.8030   -13.9110 hc         1 Y24       0.073700
     85 H46         30.5590    38.5390   -15.3130 hc         1 Y24       0.056200
     86 H47         32.0990    38.0160   -15.9880 hc         1 Y24       0.056200
     87 O07         34.1190    38.2570   -12.6030 o          1 Y24      -0.554000
@<TRIPOS>BOND
     1     1     2 1   
     2     1    40 1   
     3     1    41 1   
     4     1    42 1   
     5     2     3 1   
     6     2    31 1   
     7     2    43 1   
     8     3     4 1   
     9     3    44 1   
    10     3    45 1   
    11     4     5 1   
    12     4    32 1   
    13     4    46 1   
    14     5     6 1   
    15     5    47 1   
    16     5    48 1   
    17     6     7 1   
    18     6    33 1   
    19     6    49 1   
    20     7     8 1   
    21     7    50 1   
    22     7    51 1   
    23     8     9 1   
    24     8    34 1   
    25     8    52 1   
    26     9    10 1   
    27     9    53 1   
    28     9    54 1   
    29    10    35 1   
    30    10    55 1   
    31    10    56 1   
    32    11    14 1   
    33    11    31 1   
    34    11    57 1   
    35    11    58 1   
    36    12    13 1   
    37    12    31 1   
    38    12    36 2   
    39    13    14 1   
    40    13    59 1   
    41    13    60 1   
    42    14    61 1   
    43    14    62 1   
    44    15    16 1   
    45    15    32 1   
    46    15    63 1   
    47    15    64 1   
    48    16    17 1   
    49    16    65 1   
    50    16    66 1   
    51    17    18 1   
    52    17    67 1   
    53    17    68 1   
    54    18    32 1   
    55    18    37 2   
    56    19    20 1   
    57    19    33 1   
    58    19    38 2   
    59    20    21 1   
    60    20    69 1   
    61    20    70 1   
    62    21    22 1   
    63    21    71 1   
    64    21    72 1   
    65    22    33 1   
    66    22    73 1   
    67    22    74 1   
    68    23    24 1   
    69    23    34 1   
    70    23    75 1   
    71    23    76 1   
    72    24    25 1   
    73    24    77 1   
    74    24    78 1   
    75    25    26 1   
    76    25    79 1   
    77    25    80 1   
    78    26    34 1   
    79    26    39 2   
    80    27    30 1   
    81    27    35 1   
    82    27    81 1   
    83    27    82 1   
    84    28    29 1   
    85    28    35 1   
    86    28    87 2   
    87    29    30 1   
    88    29    83 1   
    89    29    84 1   
    90    30    85 1   
    91    30    86 1   
@<TRIPOS>SUBSTRUCTURE
     1 Y24         1 TEMP              0 ****  ****    0 ROOT
