@<TRIPOS>MOLECULE
Y24
   87    91     1     0     0
SMALL
No Charge or Current Charge


@<TRIPOS>ATOM
      1 C11         32.6240    47.9370   -10.8040 c3         1 Y24      -0.113100
      2 C01         31.4510    47.6850    -9.8290 c3         1 Y24       0.136700
      3 C02         30.7360    46.3390   -10.1470 c3         1 Y24      -0.100400
      4 C03         30.0280    46.2150   -11.5320 c3         1 Y24       0.126700
      5 C04         29.6570    44.7440   -11.8870 c3         1 Y24      -0.108400
      6 C05         30.7370    43.8440   -12.5570 c3         1 Y24       0.142700
      7 C06         31.9320    43.4350   -11.6490 c3         1 Y24      -0.112400
      8 C07         32.6930    42.1480   -12.0690 c3         1 Y24       0.140700
      9 C08         33.5230    42.2340   -13.3810 c3         1 Y24      -0.106400
     10 C09         34.3370    40.9630   -13.7200 c3         1 Y24       0.109000
     11 C22         30.4750    50.0020   -10.6390 c5         1 Y24       0.101000
     12 C23         29.7470    49.0050    -8.5660 c          1 Y24       0.553000
     13 C24         28.9040    50.2450    -8.8430 c5         1 Y24      -0.169400
     14 C25         29.8420    51.1000    -9.7300 c5         1 Y24      -0.096400
     15 C26         27.6550    46.9110   -10.6830 c5         1 Y24       0.094000
     16 C27         26.4750    47.3920   -11.5830 c5         1 Y24      -0.095400
     17 C28         27.1860    48.4620   -12.4490 c5         1 Y24      -0.170400
     18 C29         28.5270    47.8030   -12.7480 c          1 Y24       0.557000
     19 C30         32.1070    45.1630   -14.2510 c          1 Y24       0.569000
     20 C31         32.0870    45.2470   -15.7730 c5         1 Y24      -0.168400
     21 C32         30.5870    45.0590   -16.1070 c5         1 Y24      -0.094400
     22 C33         30.2070    43.9380   -15.0940 c5         1 Y24       0.098000
     23 C34         33.2420    40.1810   -10.4580 c5         1 Y24       0.098000
     24 C35         34.6310    39.8740    -9.8200 c5         1 Y24      -0.090400
     25 C36         34.9960    41.2690    -9.2500 c5         1 Y24      -0.169400
     26 C37         34.5390    42.2160   -10.3540 c          1 Y24       0.559000
     27 C38         32.1680    39.7310   -14.5370 c5         1 Y24       0.095000
     28 C39         34.1730    38.5010   -14.0130 c          1 Y24       0.562000
     29 C40         33.0600    37.5150   -14.3430 c5         1 Y24      -0.171400
     30 C41         32.1410    38.3530   -15.2680 c5         1 Y24      -0.092400
     31 N03         30.5110    48.8320    -9.7240 n          1 Y24      -0.415800
     32 N04         28.8100    47.0570   -11.6000 n          1 Y24      -0.412800
     33 N05         31.0650    44.2750   -13.9380 n          1 Y24      -0.424800
     34 N06         33.4410    41.5660   -10.9330 n          1 Y24      -0.414800
     35 N07         33.5350    39.7420   -13.9630 n          1 Y24      -0.418800
     36 O02         29.9110    48.4040    -7.5130 o          1 Y24      -0.563000
     37 O03         29.1320    47.7320   -13.8080 o          1 Y24      -0.563000
     38 O04         32.7400    45.8470   -13.4630 o          1 Y24      -0.548000
     39 O06         35.1050    43.2010   -10.8040 o          1 Y24      -0.548000
     40 H1          33.2180    48.7980   -10.4730 hc         1 Y24       0.051700
     41 H2          33.2920    47.0680   -10.8390 hc         1 Y24       0.051700
     42 H3          32.2690    48.1370   -11.8210 hc         1 Y24       0.051700
     43 H4          31.9130    47.5610    -8.8390 h1         1 Y24       0.067700
     44 H5          30.0100    46.1280    -9.3540 hc         1 Y24       0.060700
     45 H6          31.4900    45.5550   -10.0530 hc         1 Y24       0.060700
     46 H7          30.7200    46.5740   -12.2990 h1         1 Y24       0.093700
     47 H8          28.8030    44.7670   -12.5750 hc         1 Y24       0.044700
     48 H9          29.2830    44.2430   -10.9850 hc         1 Y24       0.044700
     49 H10         30.2010    42.8960   -12.7020 h1         1 Y24       0.031700
     50 H11         32.6440    44.2580   -11.5380 hc         1 Y24       0.074700
     51 H12         31.5280    43.2480   -10.6470 hc         1 Y24       0.074700
     52 H13         31.9020    41.4160   -12.2780 h1         1 Y24       0.036700
     53 H14         34.2180    43.0780   -13.3100 hc         1 Y24       0.067200
     54 H15         32.8650    42.4500   -14.2260 hc         1 Y24       0.067200
     55 H16         35.0490    40.7650   -12.9080 h1         1 Y24       0.063200
     56 H17         34.9290    41.1620   -14.6230 h1         1 Y24       0.063200
     57 H18         29.8450    49.7930   -11.5120 h1         1 Y24       0.048700
     58 H19         31.4680    50.3070   -10.9940 h1         1 Y24       0.048700
     59 H20         28.5600    50.7210    -7.9200 hc         1 Y24       0.072200
     60 H21         28.0440    49.9450    -9.4510 hc         1 Y24       0.072200
     61 H22         30.6100    51.5960    -9.1250 hc         1 Y24       0.055200
     62 H23         29.3160    51.8730   -10.3010 hc         1 Y24       0.055200
     63 H24         27.7750    47.5540    -9.8030 h1         1 Y24       0.050200
     64 H25         27.5150    45.8780   -10.3400 h1         1 Y24       0.050200
     65 H26         25.6330    47.7900   -11.0040 hc         1 Y24       0.054700
     66 H27         26.0960    46.5710   -12.2030 hc         1 Y24       0.054700
     67 H28         27.3680    49.3410   -11.8220 hc         1 Y24       0.074200
     68 H29         26.6610    48.7560   -13.3640 hc         1 Y24       0.074200
     69 H30         32.6380    44.3840   -16.1660 hc         1 Y24       0.076200
     70 H31         32.5440    46.1730   -16.1360 hc         1 Y24       0.076200
     71 H32         30.4060    44.7700   -17.1490 hc         1 Y24       0.064200
     72 H33         30.0200    45.9760   -15.9100 hc         1 Y24       0.064200
     73 H34         29.1390    43.9550   -14.8430 h1         1 Y24       0.039200
     74 H35         30.4610    42.9420   -15.4800 h1         1 Y24       0.039200
     75 H36         32.4370    40.1440    -9.7120 h1         1 Y24       0.041700
     76 H37         32.9970    39.4860   -11.2710 h1         1 Y24       0.041700
     77 H38         35.3510    39.5560   -10.5830 hc         1 Y24       0.063200
     78 H39         34.5840    39.0890    -9.0560 hc         1 Y24       0.063200
     79 H40         36.0510    41.4170    -8.9950 hc         1 Y24       0.075200
     80 H41         34.3720    41.4510    -8.3680 hc         1 Y24       0.075200
     81 H42         31.9920    40.5620   -15.2320 h1         1 Y24       0.041700
     82 H43         31.4140    39.7720   -13.7390 h1         1 Y24       0.041700
     83 H44         32.5080    37.3010   -13.4210 hc         1 Y24       0.073700
     84 H45         33.4480    36.5870   -14.7750 hc         1 Y24       0.073700
     85 H46         31.1300    37.9410   -15.3640 hc         1 Y24       0.056200
     86 H47         32.5660    38.4350   -16.2760 hc         1 Y24       0.056200
     87 O07         35.3850    38.3330   -14.0150 o          1 Y24      -0.554000
@<TRIPOS>BOND
     1     1     2 1   
     2     1    40 1   
     3     1    41 1   
     4     1    42 1   
     5     2     3 1   
     6     2    31 1   
     7     2    43 1   
     8     3     4 1   
     9     3    44 1   
    10     3    45 1   
    11     4     5 1   
    12     4    32 1   
    13     4    46 1   
    14     5     6 1   
    15     5    47 1   
    16     5    48 1   
    17     6     7 1   
    18     6    33 1   
    19     6    49 1   
    20     7     8 1   
    21     7    50 1   
    22     7    51 1   
    23     8     9 1   
    24     8    34 1   
    25     8    52 1   
    26     9    10 1   
    27     9    53 1   
    28     9    54 1   
    29    10    35 1   
    30    10    55 1   
    31    10    56 1   
    32    11    14 1   
    33    11    31 1   
    34    11    57 1   
    35    11    58 1   
    36    12    13 1   
    37    12    31 1   
    38    12    36 2   
    39    13    14 1   
    40    13    59 1   
    41    13    60 1   
    42    14    61 1   
    43    14    62 1   
    44    15    16 1   
    45    15    32 1   
    46    15    63 1   
    47    15    64 1   
    48    16    17 1   
    49    16    65 1   
    50    16    66 1   
    51    17    18 1   
    52    17    67 1   
    53    17    68 1   
    54    18    32 1   
    55    18    37 2   
    56    19    20 1   
    57    19    33 1   
    58    19    38 2   
    59    20    21 1   
    60    20    69 1   
    61    20    70 1   
    62    21    22 1   
    63    21    71 1   
    64    21    72 1   
    65    22    33 1   
    66    22    73 1   
    67    22    74 1   
    68    23    24 1   
    69    23    34 1   
    70    23    75 1   
    71    23    76 1   
    72    24    25 1   
    73    24    77 1   
    74    24    78 1   
    75    25    26 1   
    76    25    79 1   
    77    25    80 1   
    78    26    34 1   
    79    26    39 2   
    80    27    30 1   
    81    27    35 1   
    82    27    81 1   
    83    27    82 1   
    84    28    29 1   
    85    28    35 1   
    86    28    87 2   
    87    29    30 1   
    88    29    83 1   
    89    29    84 1   
    90    30    85 1   
    91    30    86 1   
@<TRIPOS>SUBSTRUCTURE
     1 Y24         1 TEMP              0 ****  ****    0 ROOT
