@<TRIPOS>MOLECULE
Y25
   12    12     1     0     0
SMALL
No Charge or Current Charge


@<TRIPOS>ATOM
      1 C02        -18.6880    -4.8070   -25.3310 ca         1 Y25       0.099100
      2 C03        -17.7660    -3.7290   -25.2940 ca         1 Y25       0.249900
      3 C05        -15.9510    -5.1740   -25.3130 ca         1 Y25       0.310900
      4 C06        -16.7950    -6.3060   -25.3510 ca         1 Y25       0.097000
      5 C08        -18.1880    -6.1190   -25.3600 ca         1 Y25      -0.111000
      6 N04        -16.4200    -3.8990   -25.2850 nb         1 Y25      -0.627000
      7 O01        -20.0440    -4.5990   -25.3400 oh         1 Y25      -0.521100
      8 Cl07       -16.1190    -7.9330   -25.3870 cl         1 Y25      -0.179000
      9 H1         -18.1170    -2.6980   -25.2710 h4         1 Y25       0.022100
     10 H2         -14.8680    -5.2930   -25.3050 h4         1 Y25       0.038100
     11 H3         -18.8620    -6.9710   -25.3900 ha         1 Y25       0.149000
     12 H4         -20.2250    -3.6330   -25.3160 ho         1 Y25       0.473000
@<TRIPOS>BOND
     1     1     2 ar  
     2     1     5 ar  
     3     1     7 1   
     4     2     6 ar  
     5     2     9 1   
     6     3     4 ar  
     7     3     6 ar  
     8     3    10 1   
     9     4     5 ar  
    10     4     8 1   
    11     5    11 1   
    12     7    12 1   
@<TRIPOS>SUBSTRUCTURE
     1 Y25         1 TEMP              0 ****  ****    0 ROOT
