@<TRIPOS>MOLECULE
Y25
   12    12     1     0     0
SMALL
abcg2


@<TRIPOS>ATOM
      1 C02        -18.6710    -4.7970   -25.3310 ca         1 Y25       0.099100
      2 C03        -17.7520    -3.7470   -25.2940 ca         1 Y25       0.249900
      3 C05        -15.9650    -5.1750   -25.3140 ca         1 Y25       0.310900
      4 C06        -16.8130    -6.2740   -25.3510 ca         1 Y25       0.097000
      5 C08        -18.1840    -6.0990   -25.3600 ca         1 Y25      -0.111000
      6 N04        -16.4430    -3.9420   -25.2860 nb         1 Y25      -0.627000
      7 O01        -19.9980    -4.6180   -25.3400 oh         1 Y25      -0.521100
      8 CL07       -16.1470    -7.8650   -25.3830 cl         1 Y25      -0.179000
      9 H1         -18.1000    -2.7190   -25.2700 h4         1 Y25       0.022100
     10 H2         -14.8890    -5.3020   -25.3060 h4         1 Y25       0.038100
     11 H3         -18.8610    -6.9430   -25.3900 ha         1 Y25       0.149000
     12 H4         -20.2200    -3.6790   -25.3170 ho         1 Y25       0.473000
@<TRIPOS>BOND
     1     1     2 ar  
     2     1     5 ar  
     3     1     7 1   
     4     2     6 ar  
     5     2     9 1   
     6     3     4 ar  
     7     3     6 ar  
     8     3    10 1   
     9     4     5 ar  
    10     4     8 1   
    11     5    11 1   
    12     7    12 1   
@<TRIPOS>SUBSTRUCTURE
     1 Y25         1 TEMP              0 ****  ****    0 ROOT
