@<TRIPOS>MOLECULE
Y27
   39    40     1     0     0
SMALL
abcg2


@<TRIPOS>ATOM
      1 O23         -1.6420    -0.9080    -1.0930 o          1 Y27      -0.564100
      2 C22         -0.7040    -0.1960    -0.7930 c          1 Y27       0.611100
      3 C31         -0.3650     0.1720     0.6350 c6         1 Y27      -0.143700
      4 C36         -1.6030     0.2590     1.5210 c6         1 Y27      -0.066400
      5 C35         -1.2090     0.6300     2.9460 c6         1 Y27      -0.072900
      6 C34         -0.2160    -0.3630     3.5480 c6         1 Y27      -0.102700
      7 C33          1.0080    -0.4970     2.6420 c6         1 Y27      -0.072900
      8 C32          0.6260    -0.8520     1.2080 c6         1 Y27      -0.066400
      9 C41          0.1380    -0.0010     5.0050 c3         1 Y27       0.165500
     10 C42          0.9740    -1.0830     5.6770 c3         1 Y27      -0.084100
     11 N43          0.7960     1.2880     5.1910 n8         1 Y27      -0.996200
     12 N21          0.1670     0.3250    -1.7100 ns         1 Y27      -0.150000
     13 C14          0.2020     0.1600    -3.0840 ca         1 Y27       0.020000
     14 C15         -0.6690    -0.6440    -3.8220 ca         1 Y27      -0.211000
     15 C16         -0.5010    -0.7020    -5.1970 ca         1 Y27       0.357900
     16 N11          0.4310    -0.0460    -5.8770 nb         1 Y27      -0.682000
     17 C12          1.2560     0.7170    -5.1650 ca         1 Y27       0.357900
     18 C13          1.1880     0.8530    -3.7930 ca         1 Y27      -0.211000
     19 H31          0.1290     1.1510     0.6370 hc         1 Y27       0.053700
     20 H361        -2.1240    -0.7020     1.5220 hc         1 Y27       0.054700
     21 H362        -2.3030     0.9970     1.1210 hc         1 Y27       0.054700
     22 H351        -2.1030     0.6840     3.5730 hc         1 Y27       0.040450
     23 H352        -0.7720     1.6360     2.9390 hc         1 Y27       0.040450
     24 H34         -0.7130    -1.3430     3.5800 hc         1 Y27       0.058700
     25 H331         1.5700     0.4440     2.6340 hc         1 Y27       0.040450
     26 H332         1.6880    -1.2600     3.0260 hc         1 Y27       0.040450
     27 H321         0.1680    -1.8460     1.1840 hc         1 Y27       0.054700
     28 H322         1.5240    -0.9010     0.5870 hc         1 Y27       0.054700
     29 H41         -0.8140     0.0570     5.5470 h1         1 Y27       0.057700
     30 H421         1.9780    -1.1420     5.2530 hc         1 Y27       0.038367
     31 H422         0.5110    -2.0650     5.5660 hc         1 Y27       0.038367
     32 H423         1.0800    -0.8800     6.7430 hc         1 Y27       0.038367
     33 H431         1.6600     1.3130     4.6620 hn         1 Y27       0.392000
     34 H432         0.2220     2.0320     4.8160 hn         1 Y27       0.392000
     35 H21          0.8930     0.9190    -1.3370 hn         1 Y27       0.151000
     36 H15         -1.4580    -1.2120    -3.3600 ha         1 Y27       0.136000
     37 H16         -1.1720    -1.3250    -5.7770 h4         1 Y27       0.018600
     38 H12          2.0200     1.2540    -5.7150 h4         1 Y27       0.018600
     39 H13          1.8950     1.4930    -3.2800 ha         1 Y27       0.136000
@<TRIPOS>BOND
     1     1     2 2   
     2     2     3 1   
     3     2    12 1   
     4     3     4 1   
     5     3     8 1   
     6     3    19 1   
     7     4     5 1   
     8     4    20 1   
     9     4    21 1   
    10     5     6 1   
    11     5    22 1   
    12     5    23 1   
    13     6     7 1   
    14     6     9 1   
    15     6    24 1   
    16     7     8 1   
    17     7    25 1   
    18     7    26 1   
    19     8    27 1   
    20     8    28 1   
    21     9    10 1   
    22     9    11 1   
    23     9    29 1   
    24    10    30 1   
    25    10    31 1   
    26    10    32 1   
    27    11    33 1   
    28    11    34 1   
    29    12    13 1   
    30    12    35 1   
    31    13    14 ar  
    32    13    18 ar  
    33    14    15 ar  
    34    14    36 1   
    35    15    16 ar  
    36    15    37 1   
    37    16    17 ar  
    38    17    18 ar  
    39    17    38 1   
    40    18    39 1   
@<TRIPOS>SUBSTRUCTURE
     1 Y27         1 TEMP              0 ****  ****    0 ROOT
