@<TRIPOS>MOLECULE
Y27
   39    40     1     0     0
SMALL
No Charge or Current Charge


@<TRIPOS>ATOM
      1 O23         -1.1350    -1.5220    -1.0850 o          1 Y27      -0.564100
      2 C22         -0.4230    -0.5560    -0.8360 c          1 Y27       0.611100
      3 C31         -0.1200    -0.1520     0.6260 c6         1 Y27      -0.143700
      4 C36         -1.3750     0.3250     1.4050 c6         1 Y27      -0.066400
      5 C35         -1.0000     0.7990     2.8310 c6         1 Y27      -0.072900
      6 C34         -0.2190    -0.2990     3.6170 c6         1 Y27      -0.102700
      7 C33          1.0600    -0.7220     2.8260 c6         1 Y27      -0.072900
      8 C32          0.7130    -1.2100     1.3970 c6         1 Y27      -0.066400
      9 C41          0.0640     0.1270     5.0980 c3         1 Y27       0.165500
     10 C42          0.6320    -0.9990     5.9900 c3         1 Y27      -0.084100
     11 N43          0.9360     1.3110     5.1920 n8         1 Y27      -0.996200
     12 N21          0.1660     0.2490    -1.8030 ns         1 Y27      -0.150000
     13 C14          0.1340     0.2140    -3.2230 ca         1 Y27       0.020000
     14 C15         -0.5750    -0.7410    -3.9790 ca         1 Y27      -0.211000
     15 C16         -0.5350    -0.6800    -5.3810 ca         1 Y27       0.357900
     16 N11          0.1580     0.2620    -6.0590 nb         1 Y27      -0.682000
     17 C12          0.8390     1.1800    -5.3370 ca         1 Y27       0.357900
     18 C13          0.8510     1.1890    -3.9330 ca         1 Y27      -0.211000
     19 H31          0.5300     0.7320     0.5500 hc         1 Y27       0.053700
     20 H361        -2.1050    -0.4940     1.4700 hc         1 Y27       0.054700
     21 H362        -1.8700     1.1420     0.8610 hc         1 Y27       0.054700
     22 H351        -1.9150     1.0700     3.3750 hc         1 Y27       0.040450
     23 H352        -0.3990     1.7160     2.7590 hc         1 Y27       0.040450
     24 H34         -0.8740    -1.1790     3.6890 hc         1 Y27       0.058700
     25 H331         1.7620     0.1200     2.7600 hc         1 Y27       0.040450
     26 H332         1.5890    -1.5270     3.3530 hc         1 Y27       0.040450
     27 H321         0.1490    -2.1520     1.4580 hc         1 Y27       0.054700
     28 H322         1.6380    -1.4370     0.8480 hc         1 Y27       0.054700
     29 H41         -0.9070     0.4080     5.5310 h1         1 Y27       0.057700
     30 H421         1.6430    -1.2870     5.6810 hc         1 Y27       0.038367
     31 H422        -0.0090    -1.8870     5.9420 hc         1 Y27       0.038367
     32 H423         0.6760    -0.6750     7.0370 hc         1 Y27       0.038367
     33 H431         1.8300     1.0900     4.7420 hn         1 Y27       0.392000
     34 H432         0.5460     2.0480     4.5950 hn         1 Y27       0.392000
     35 H21          0.7230     1.0050    -1.4270 hn         1 Y27       0.151000
     36 H15         -1.1560    -1.5300    -3.5160 ha         1 Y27       0.136000
     37 H16         -1.0760    -1.4090    -5.9820 h4         1 Y27       0.018600
     38 H12          1.3900     1.9310    -5.9020 h4         1 Y27       0.018600
     39 H13          1.4190     1.9550    -3.4110 ha         1 Y27       0.136000
@<TRIPOS>BOND
     1     1     2 2   
     2     2     3 1   
     3     2    12 1   
     4     3     4 1   
     5     3     8 1   
     6     3    19 1   
     7     4     5 1   
     8     4    20 1   
     9     4    21 1   
    10     5     6 1   
    11     5    22 1   
    12     5    23 1   
    13     6     7 1   
    14     6     9 1   
    15     6    24 1   
    16     7     8 1   
    17     7    25 1   
    18     7    26 1   
    19     8    27 1   
    20     8    28 1   
    21     9    10 1   
    22     9    11 1   
    23     9    29 1   
    24    10    30 1   
    25    10    31 1   
    26    10    32 1   
    27    11    33 1   
    28    11    34 1   
    29    12    13 1   
    30    12    35 1   
    31    13    14 ar  
    32    13    18 ar  
    33    14    15 ar  
    34    14    36 1   
    35    15    16 ar  
    36    15    37 1   
    37    16    17 ar  
    38    17    18 ar  
    39    17    38 1   
    40    18    39 1   
@<TRIPOS>SUBSTRUCTURE
     1 Y27         1 TEMP              0 ****  ****    0 ROOT
