@<TRIPOS>MOLECULE
Y28
   40    41     1     0     0
SMALL
abcg2


@<TRIPOS>ATOM
      1 CAD        -49.3690   -57.5400     7.2430 ca         1 Y28      -0.091000
      2 CAF        -49.3640   -58.8820     7.6010 ca         1 Y28      -0.117500
      3 CAH        -48.4010   -59.3640     8.4770 ca         1 Y28      -0.117000
      4 CAG        -47.4480   -58.4940     8.9930 ca         1 Y28      -0.117500
      5 CAE        -47.4600   -57.1530     8.6410 ca         1 Y28      -0.091000
      6 CAB        -48.4220   -56.6630     7.7600 ca         1 Y28      -0.104300
      7 CAC        -48.4630   -55.2010     7.3960 c3         1 Y28       0.214900
      8 OH         -47.1820   -54.6300     7.2290 os         1 Y28      -0.358100
      9 CZ         -46.4100   -55.0380     6.1920 ca         1 Y28       0.077100
     10 CE2        -46.8560   -55.8210     5.1330 ca         1 Y28      -0.169500
     11 CD2        -45.9740   -56.1690     4.1150 ca         1 Y28      -0.071000
     12 CE1        -45.0810   -54.6170     6.2130 ca         1 Y28      -0.169500
     13 CD1        -44.2190   -54.9800     5.1940 ca         1 Y28      -0.071000
     14 CG         -44.6470   -55.7650     4.1220 ca         1 Y28      -0.024300
     15 CB         -43.6770   -56.1700     3.0500 c3         1 Y28      -0.038100
     16 CA         -43.2050   -55.0060     2.1460 c3         1 Y28      -0.024300
     17 C          -44.2750   -54.6970     1.0710 c          1 Y28       0.710000
     18 OXT        -45.3040   -54.1330     1.4780 o          1 Y28      -0.739000
     19 O          -44.0240   -55.0700    -0.0940 o          1 Y28      -0.739000
     20 N          -41.9540   -55.3210     1.5070 ns         1 Y28      -0.473900
     21 CAR        -40.7600   -55.2800     2.1020 c          1 Y28       0.438100
     22 OAW        -40.5960   -55.0020     3.2870 o          1 Y28      -0.701100
     23 CAS        -39.5690   -55.6150     1.1470 c          1 Y28       0.659000
     24 OAY        -39.8800   -55.9080    -0.0220 o          1 Y28      -0.720000
     25 OAX        -38.4430   -55.5520     1.6550 o          1 Y28      -0.720000
     26 HAD        -50.1150   -57.1730     6.5470 ha         1 Y28       0.117500
     27 HAF        -50.1070   -59.5520     7.1880 ha         1 Y28       0.103000
     28 HAH        -48.3900   -60.4100     8.7530 ha         1 Y28       0.100000
     29 HAG        -46.6920   -58.8630     9.6750 ha         1 Y28       0.103000
     30 HAE        -46.7110   -56.4880     9.0540 ha         1 Y28       0.117500
     31 HAC1       -49.0910   -55.0470     6.5110 h1         1 Y28       0.045700
     32 HAC2       -48.9190   -54.6280     8.2060 h1         1 Y28       0.045700
     33 HE2        -47.8770   -56.1710     5.0750 ha         1 Y28       0.095000
     34 HE1        -44.7260   -54.0140     7.0400 ha         1 Y28       0.095000
     35 HD2        -46.3400   -56.7820     3.3000 ha         1 Y28       0.124000
     36 HD1        -43.1860   -54.6530     5.2370 ha         1 Y28       0.124000
     37 HB1C       -42.7940   -56.5980     3.5290 hc         1 Y28       0.041200
     38 HB2C       -44.1070   -56.9620     2.4310 hc         1 Y28       0.041200
     39 HA         -43.0670   -54.1210     2.7750 h1         1 Y28       0.041700
     40 H          -41.9890   -55.5360     0.5220 hn         1 Y28       0.358500
@<TRIPOS>BOND
     1     1     2 ar  
     2     1     6 ar  
     3     1    26 1   
     4     2     3 ar  
     5     2    27 1   
     6     3     4 ar  
     7     3    28 1   
     8     4     5 ar  
     9     4    29 1   
    10     5     6 ar  
    11     5    30 1   
    12     6     7 1   
    13     7     8 1   
    14     7    31 1   
    15     7    32 1   
    16     8     9 1   
    17     9    10 ar  
    18     9    12 ar  
    19    10    11 ar  
    20    10    33 1   
    21    11    14 ar  
    22    11    35 1   
    23    12    13 ar  
    24    12    34 1   
    25    13    14 ar  
    26    13    36 1   
    27    14    15 1   
    28    15    16 1   
    29    15    37 1   
    30    15    38 1   
    31    16    17 1   
    32    16    20 1   
    33    16    39 1   
    34    17    18 1   
    35    17    19 1   
    36    20    21 1   
    37    20    40 1   
    38    21    22 2   
    39    21    23 1   
    40    23    24 1   
    41    23    25 1   
@<TRIPOS>SUBSTRUCTURE
     1 Y28         1 TEMP              0 ****  ****    0 ROOT
