@<TRIPOS>MOLECULE
Y28
   40    41     1     0     0
SMALL
No Charge or Current Charge


@<TRIPOS>ATOM
      1 CAD        -49.3120   -57.6600     7.0270 ca         1 Y28      -0.091000
      2 CAF        -49.2520   -59.0120     7.4060 ca         1 Y28      -0.117500
      3 CAH        -48.4560   -59.4040     8.4950 ca         1 Y28      -0.117000
      4 CAG        -47.7220   -58.4410     9.2070 ca         1 Y28      -0.117500
      5 CAE        -47.7820   -57.0880     8.8300 ca         1 Y28      -0.091000
      6 CAB        -48.5740   -56.6880     7.7340 ca         1 Y28      -0.104300
      7 CAC        -48.6450   -55.2160     7.3250 c3         1 Y28       0.214900
      8 OH         -47.3160   -54.6630     7.2170 os         1 Y28      -0.358100
      9 CZ         -46.4180   -55.0450     6.2400 ca         1 Y28       0.077100
     10 CE2        -46.7730   -55.8680     5.1490 ca         1 Y28      -0.169500
     11 CD2        -45.8100   -56.2180     4.1860 ca         1 Y28      -0.071000
     12 CE1        -45.0990   -54.5720     6.3450 ca         1 Y28      -0.169500
     13 CD1        -44.1370   -54.9220     5.3810 ca         1 Y28      -0.071000
     14 CG         -44.4870   -55.7480     4.2970 ca         1 Y28      -0.024300
     15 CB         -43.4410   -56.1280     3.2560 c3         1 Y28      -0.038100
     16 CA         -43.1120   -54.9640     2.2880 c3         1 Y28      -0.024300
     17 C          -44.3510   -54.5600     1.4250 c          1 Y28       0.710000
     18 OXT        -44.8340   -53.4480     1.5880 o          1 Y28      -0.739000
     19 O          -44.7100   -55.3180     0.5330 o          1 Y28      -0.739000
     20 N          -41.9610   -55.2920     1.4110 ns         1 Y28      -0.473900
     21 CAR        -40.6210   -55.2700     1.7790 c          1 Y28       0.438100
     22 OAW        -40.2690   -54.9300     2.9140 o          1 Y28      -0.701100
     23 CAS        -39.5890   -55.7220     0.5840 c          1 Y28       0.659000
     24 OAY        -40.0640   -56.0280    -0.5090 o          1 Y28      -0.720000
     25 OAX        -38.3800   -55.7410     0.8120 o          1 Y28      -0.720000
     26 HAD        -49.9340   -57.3680     6.1830 ha         1 Y28       0.117500
     27 HAF        -49.8220   -59.7560     6.8550 ha         1 Y28       0.103000
     28 HAH        -48.4090   -60.4500     8.7870 ha         1 Y28       0.100000
     29 HAG        -47.1060   -58.7420    10.0520 ha         1 Y28       0.103000
     30 HAE        -47.2100   -56.3490     9.3870 ha         1 Y28       0.117500
     31 HAC1       -49.1930   -55.1010     6.3810 h1         1 Y28       0.045700
     32 HAC2       -49.2090   -54.6720     8.0930 h1         1 Y28       0.045700
     33 HE2        -47.7850   -56.2420     5.0280 ha         1 Y28       0.095000
     34 HE1        -44.8200   -53.9330     7.1790 ha         1 Y28       0.095000
     35 HD2        -46.0940   -56.8530     3.3500 ha         1 Y28       0.124000
     36 HD1        -43.1190   -54.5510     5.4770 ha         1 Y28       0.124000
     37 HB1C       -42.5240   -56.4390     3.7700 hc         1 Y28       0.041200
     38 HB2C       -43.7710   -56.9990     2.6760 hc         1 Y28       0.041200
     39 HA         -42.8320   -54.0870     2.8870 h1         1 Y28       0.041700
     40 H          -42.1520   -55.5800     0.4550 hn         1 Y28       0.358500
@<TRIPOS>BOND
     1     1     2 ar  
     2     1     6 ar  
     3     1    26 1   
     4     2     3 ar  
     5     2    27 1   
     6     3     4 ar  
     7     3    28 1   
     8     4     5 ar  
     9     4    29 1   
    10     5     6 ar  
    11     5    30 1   
    12     6     7 1   
    13     7     8 1   
    14     7    31 1   
    15     7    32 1   
    16     8     9 1   
    17     9    10 ar  
    18     9    12 ar  
    19    10    11 ar  
    20    10    33 1   
    21    11    14 ar  
    22    11    35 1   
    23    12    13 ar  
    24    12    34 1   
    25    13    14 ar  
    26    13    36 1   
    27    14    15 1   
    28    15    16 1   
    29    15    37 1   
    30    15    38 1   
    31    16    17 1   
    32    16    20 1   
    33    16    39 1   
    34    17    18 1   
    35    17    19 1   
    36    20    21 1   
    37    20    40 1   
    38    21    22 2   
    39    21    23 1   
    40    23    24 1   
    41    23    25 1   
@<TRIPOS>SUBSTRUCTURE
     1 Y28         1 TEMP              0 ****  ****    0 ROOT
