@<TRIPOS>MOLECULE
Y2B
   57    60     1     0     0
SMALL
No Charge or Current Charge


@<TRIPOS>ATOM
      1 N01         16.6210     7.7300    55.0350 nb         1 Y2B      -0.744000
      2 C02         16.2840     8.8830    54.4770 ca         1 Y2B       0.589900
      3 N02         14.9610     8.9800    54.3260 nv         1 Y2B      -1.050900
      4 C03         17.1790     9.8870    54.1000 ca         1 Y2B      -0.227000
      5 C04         18.5490     9.6750    54.3170 ca         1 Y2B      -0.001300
      6 C05         18.9270     8.4560    54.9020 ca         1 Y2B      -0.216000
      7 C06         17.9390     7.5140    55.2470 ca         1 Y2B       0.392300
      8 C07         19.5820    10.7180    53.9260 c3         1 Y2B      -0.052800
      9 C08         18.3230     6.1810    55.8740 c3         1 Y2B      -0.108700
     10 O09         18.4580     3.3710    56.4780 os         1 Y2B      -0.471000
     11 N1          18.6240     3.5980    53.0970 n7         1 Y2B      -0.828400
     12 C10         18.8020     2.1840    57.2280 c3         1 Y2B       0.154600
     13 C11         17.7030     1.9460    58.2930 c3         1 Y2B       0.163800
     14 N12         16.3720     1.8030    57.6600 n7         1 Y2B      -0.835400
     15 C13         15.2540     1.7870    58.5770 cx         1 Y2B       0.136500
     16 C14         13.9090     2.2220    58.0370 cx         1 Y2B      -0.088400
     17 C15         14.6840     3.1250    58.9720 cx         1 Y2B      -0.166400
     18 C2          17.8500     4.6450    53.8030 c5         1 Y2B       0.142800
     19 C21         12.6210     1.5520    58.4530 ca         1 Y2B      -0.011300
     20 C22         12.4310     1.0600    59.7630 ca         1 Y2B      -0.150000
     21 C23         11.2220     0.4420    60.1190 ca         1 Y2B       0.165000
     22 F23         11.0530    -0.0250    61.3750 f          1 Y2B      -0.188000
     23 C24         10.1890     0.3050    59.1810 ca         1 Y2B      -0.150000
     24 C25         10.3660     0.7910    57.8750 ca         1 Y2B      -0.083000
     25 C26         11.5770     1.4110    57.5150 ca         1 Y2B      -0.120000
     26 C3          18.8730     5.1490    54.8500 c5         1 Y2B      -0.087700
     27 C4          19.3750     3.7920    55.4330 c5         1 Y2B       0.146300
     28 C5          19.2470     2.8140    54.2050 c5         1 Y2B       0.107800
     29 HN02        14.4240     8.2980    54.8470 hn         1 Y2B       0.466000
     30 HN0A        14.5620     9.9080    54.2430 hn         1 Y2B       0.466000
     31 H03         16.8190    10.8060    53.6480 ha         1 Y2B       0.119000
     32 H05         19.9750     8.2350    55.0880 ha         1 Y2B       0.119000
     33 H07         20.4430    10.6990    54.6050 hc         1 Y2B       0.047033
     34 H07A        19.9520    10.5390    52.9100 hc         1 Y2B       0.047033
     35 H07B        19.1610    11.7300    53.9560 hc         1 Y2B       0.047033
     36 H08         19.0800     6.3600    56.6470 hc         1 Y2B       0.065700
     37 H08A        17.4600     5.7610    56.4030 hc         1 Y2B       0.065700
     38 HN1         19.3730     4.0680    52.5740 hn         1 Y2B       0.392000
     39 H10         18.8690     1.3050    56.5740 h1         1 Y2B       0.033200
     40 H10A        19.7700     2.3120    57.7310 h1         1 Y2B       0.033200
     41 H13         15.2590     0.9960    59.3310 h1         1 Y2B       0.094700
     42 H14         13.8910     2.5260    56.9930 hc         1 Y2B       0.086700
     43 H15         15.1330     4.0210    58.5500 hc         1 Y2B       0.078200
     44 H15A        14.3280     3.2390    59.9920 hc         1 Y2B       0.078200
     45 H2          17.5220     5.4440    53.1210 h1         1 Y2B       0.067700
     46 H2'A        16.9550     4.2250    54.2860 h1         1 Y2B       0.067700
     47 H22         13.2130     1.1520    60.5120 ha         1 Y2B       0.129000
     48 H24          9.2560    -0.1750    59.4660 ha         1 Y2B       0.132000
     49 H25          9.5690     0.6880    57.1420 ha         1 Y2B       0.117000
     50 H26         11.7010     1.7820    56.5010 ha         1 Y2B       0.119000
     51 H3          19.7070     5.6470    54.3390 hc         1 Y2B       0.045700
     52 H4          20.3950     3.8570    55.8380 h1         1 Y2B       0.041700
     53 H5          18.6110     1.9540    54.4550 h1         1 Y2B       0.057700
     54 H5'A        20.2260     2.4170    53.9020 h1         1 Y2B       0.057700
     55 H27         16.2740     2.6040    57.0250 hn         1 Y2B       0.429000
     56 H11         17.9520     1.0500    58.8760 h1         1 Y2B       0.041200
     57 H29         17.7080     2.8010    58.9830 h1         1 Y2B       0.041200
@<TRIPOS>BOND
     1     1     2 ar  
     2     1     7 ar  
     3     2     3 1   
     4     2     4 ar  
     5     3    29 1   
     6     3    30 1   
     7     4     5 ar  
     8     4    31 1   
     9     5     6 ar  
    10     5     8 1   
    11     6     7 ar  
    12     6    32 1   
    13     7     9 1   
    14     8    33 1   
    15     8    34 1   
    16     8    35 1   
    17     9    26 1   
    18     9    36 1   
    19     9    37 1   
    20    10    12 1   
    21    10    27 1   
    22    11    18 1   
    23    11    28 1   
    24    11    38 1   
    25    12    13 1   
    26    12    39 1   
    27    12    40 1   
    28    13    14 1   
    29    13    56 1   
    30    13    57 1   
    31    14    15 1   
    32    14    55 1   
    33    15    16 1   
    34    15    17 1   
    35    15    41 1   
    36    16    17 1   
    37    16    19 1   
    38    16    42 1   
    39    17    43 1   
    40    17    44 1   
    41    18    26 1   
    42    18    45 1   
    43    18    46 1   
    44    19    20 ar  
    45    19    25 ar  
    46    20    21 ar  
    47    20    47 1   
    48    21    22 1   
    49    21    23 ar  
    50    23    24 ar  
    51    23    48 1   
    52    24    25 ar  
    53    24    49 1   
    54    25    50 1   
    55    26    27 1   
    56    26    51 1   
    57    27    28 1   
    58    27    52 1   
    59    28    53 1   
    60    28    54 1   
@<TRIPOS>SUBSTRUCTURE
     1 Y2B         1 TEMP              0 ****  ****    0 ROOT
