@<TRIPOS>MOLECULE
Y2B
   57    60     1     0     0
SMALL
abcg2


@<TRIPOS>ATOM
      1 N01         16.8660     7.9410    55.0590 nb         1 Y2B      -0.744000
      2 C02         16.5470     9.0860    54.4450 ca         1 Y2B       0.589900
      3 N02         15.2050     9.3360    54.2540 nv         1 Y2B      -1.050900
      4 C03         17.5200     9.9810    53.9690 ca         1 Y2B      -0.227000
      5 C04         18.8590     9.6740    54.1370 ca         1 Y2B      -0.001300
      6 C05         19.1820     8.4730    54.7790 ca         1 Y2B      -0.216000
      7 C06         18.1650     7.6390    55.2190 ca         1 Y2B       0.392300
      8 C07         19.9370    10.5930    53.6370 c3         1 Y2B      -0.052800
      9 C08         18.4740     6.3200    55.8780 c3         1 Y2B      -0.108700
     10 O09         18.2400     3.6040    56.5490 os         1 Y2B      -0.471000
     11 N1          18.1030     3.6130    53.2370 n7         1 Y2B      -0.828400
     12 C10         18.6130     2.4990    57.3600 c3         1 Y2B       0.154600
     13 C11         17.5250     2.2870    58.3870 c3         1 Y2B       0.163800
     14 N12         16.2620     1.9400    57.7340 n7         1 Y2B      -0.835400
     15 C13         15.1690     1.8050    58.6580 cx         1 Y2B       0.136500
     16 C14         13.7810     2.1760    58.2150 cx         1 Y2B      -0.088400
     17 C15         14.4940     2.9920    59.2850 cx         1 Y2B      -0.166400
     18 C2          17.6770     4.8800    53.8540 c5         1 Y2B       0.142800
     19 C21         12.6060     1.3280    58.5260 ca         1 Y2B      -0.011300
     20 C22         12.4850     0.6500    59.7440 ca         1 Y2B      -0.150000
     21 C23         11.3690    -0.1300    59.9710 ca         1 Y2B       0.165000
     22 F23         11.2740    -0.7820    61.1610 f          1 Y2B      -0.188000
     23 C24         10.3480    -0.2800    59.0500 ca         1 Y2B      -0.150000
     24 C25         10.4700     0.3970    57.8410 ca         1 Y2B      -0.083000
     25 C26         11.5830     1.1890    57.5820 ca         1 Y2B      -0.120000
     26 C3          18.7870     5.2260    54.8550 c5         1 Y2B      -0.087700
     27 C4          19.1180     3.8520    55.4520 c5         1 Y2B       0.146300
     28 C5          18.8530     2.8730    54.2820 c5         1 Y2B       0.107800
     29 HN02        14.5820     8.8180    54.8550 hn         1 Y2B       0.466000
     30 HN0A        14.9380    10.2970    54.1110 hn         1 Y2B       0.466000
     31 H03         17.2160    10.9000    53.4830 ha         1 Y2B       0.119000
     32 H05         20.2160     8.1950    54.9370 ha         1 Y2B       0.119000
     33 H07         20.6900    10.7650    54.4080 hc         1 Y2B       0.047033
     34 H07A        20.4490    10.1480    52.7800 hc         1 Y2B       0.047033
     35 H07B        19.5280    11.5540    53.3260 hc         1 Y2B       0.047033
     36 H08         19.3340     6.4340    56.5430 hc         1 Y2B       0.065700
     37 H08A        17.6210     6.0200    56.4850 hc         1 Y2B       0.065700
     38 HN1         18.7450     3.8360    52.4850 hn         1 Y2B       0.392000
     39 H10         18.7300     1.5950    56.7500 h1         1 Y2B       0.033200
     40 H10A        19.5700     2.7050    57.8550 h1         1 Y2B       0.033200
     41 H13         15.2460     0.9180    59.2780 h1         1 Y2B       0.094700
     42 H14         13.7290     2.6510    57.2420 hc         1 Y2B       0.086700
     43 H15         14.8370     3.9760    58.9930 hc         1 Y2B       0.078200
     44 H15A        14.1300     2.9110    60.3010 hc         1 Y2B       0.078200
     45 H2          17.5260     5.6420    53.0910 h1         1 Y2B       0.067700
     46 H2'A        16.7290     4.7370    54.3810 h1         1 Y2B       0.067700
     47 H22         13.2430     0.7190    60.5140 ha         1 Y2B       0.129000
     48 H24          9.4920    -0.9020    59.2770 ha         1 Y2B       0.132000
     49 H25          9.6900     0.3040    57.0970 ha         1 Y2B       0.117000
     50 H26         11.6640     1.7090    56.6350 ha         1 Y2B       0.119000
     51 H3          19.6630     5.5340    54.2730 hc         1 Y2B       0.045700
     52 H4          20.1510     3.8020    55.8100 h1         1 Y2B       0.041700
     53 H5          18.2600     2.0340    54.6520 h1         1 Y2B       0.057700
     54 H5'A        19.7770     2.4700    53.8660 h1         1 Y2B       0.057700
     55 H27         16.0470     2.6590    57.0510 hn         1 Y2B       0.429000
     56 H11         17.8180     1.4660    59.0470 h1         1 Y2B       0.041200
     57 H29         17.4320     3.1890    59.0090 h1         1 Y2B       0.041200
@<TRIPOS>BOND
     1     1     2 ar  
     2     1     7 ar  
     3     2     3 1   
     4     2     4 ar  
     5     3    29 1   
     6     3    30 1   
     7     4     5 ar  
     8     4    31 1   
     9     5     6 ar  
    10     5     8 1   
    11     6     7 ar  
    12     6    32 1   
    13     7     9 1   
    14     8    33 1   
    15     8    34 1   
    16     8    35 1   
    17     9    26 1   
    18     9    36 1   
    19     9    37 1   
    20    10    12 1   
    21    10    27 1   
    22    11    18 1   
    23    11    28 1   
    24    11    38 1   
    25    12    13 1   
    26    12    39 1   
    27    12    40 1   
    28    13    14 1   
    29    13    56 1   
    30    13    57 1   
    31    14    15 1   
    32    14    55 1   
    33    15    16 1   
    34    15    17 1   
    35    15    41 1   
    36    16    17 1   
    37    16    19 1   
    38    16    42 1   
    39    17    43 1   
    40    17    44 1   
    41    18    26 1   
    42    18    45 1   
    43    18    46 1   
    44    19    20 ar  
    45    19    25 ar  
    46    20    21 ar  
    47    20    47 1   
    48    21    22 1   
    49    21    23 ar  
    50    23    24 ar  
    51    23    48 1   
    52    24    25 ar  
    53    24    49 1   
    54    25    50 1   
    55    26    27 1   
    56    26    51 1   
    57    27    28 1   
    58    27    52 1   
    59    28    53 1   
    60    28    54 1   
@<TRIPOS>SUBSTRUCTURE
     1 Y2B         1 TEMP              0 ****  ****    0 ROOT
