@<TRIPOS>MOLECULE
Y2C
   13    13     1     0     0
SMALL
abcg2


@<TRIPOS>ATOM
      1 C02        -18.3020    -6.4740   -25.3950 ca         1 Y2C       0.391000
      2 C03        -16.8990    -6.5670   -25.3550 ca         1 Y2C      -0.034000
      3 C05        -16.1100    -5.4360   -25.3580 ca         1 Y2C       0.394900
      4 C07        -17.9210    -4.0790   -25.4360 ca         1 Y2C       0.394900
      5 C08        -18.7860    -5.1530   -25.4370 ca         1 Y2C      -0.034000
      6 N01        -19.1070    -7.5470   -25.4220 nv         1 Y2C      -1.095000
      7 N06        -16.6010    -4.2050   -25.3960 nb         1 Y2C      -0.690000
      8 CL04       -16.1580    -8.1290   -25.3030 cl         1 Y2C      -0.195000
      9 CL09       -20.4920    -4.8800   -25.4950 cl         1 Y2C      -0.195000
     10 H1         -15.0310    -5.5410   -25.3260 h4         1 Y2C       0.034100
     11 H2         -18.3240    -3.0720   -25.4670 h4         1 Y2C       0.034100
     12 H3         -18.7340    -8.4620   -25.2330 hn         1 Y2C       0.497000
     13 H4         -20.0980    -7.4380   -25.2890 hn         1 Y2C       0.497000
@<TRIPOS>BOND
     1     1     2 ar  
     2     1     5 ar  
     3     1     6 1   
     4     2     3 ar  
     5     2     8 1   
     6     3     7 ar  
     7     3    10 1   
     8     4     5 ar  
     9     4     7 ar  
    10     4    11 1   
    11     5     9 1   
    12     6    12 1   
    13     6    13 1   
@<TRIPOS>SUBSTRUCTURE
     1 Y2C         1 TEMP              0 ****  ****    0 ROOT
