@<TRIPOS>MOLECULE
Y2C
   13    13     1     0     0
SMALL
No Charge or Current Charge


@<TRIPOS>ATOM
      1 C02        -18.2850    -6.4500   -25.4140 ca         1 Y2C       0.391000
      2 C03        -16.8850    -6.6020   -25.3640 ca         1 Y2C      -0.034000
      3 C05        -16.0850    -5.4460   -25.3540 ca         1 Y2C       0.394900
      4 C07        -17.9370    -4.0570   -25.4350 ca         1 Y2C       0.394900
      5 C08        -18.8220    -5.1490   -25.4490 ca         1 Y2C      -0.034000
      6 N01        -19.1130    -7.5560   -25.4270 nv         1 Y2C      -1.095000
      7 N06        -16.5900    -4.1890   -25.3890 nb         1 Y2C      -0.690000
      8 Cl04       -16.1240    -8.2030   -25.3120 cl         1 Y2C      -0.195000
      9 Cl09       -20.5720    -4.8660   -25.5060 cl         1 Y2C      -0.195000
     10 H1         -14.9990    -5.5280   -25.3160 h4         1 Y2C       0.034100
     11 H2         -18.3200    -3.0370   -25.4610 h4         1 Y2C       0.034100
     12 H3         -18.7190    -8.4710   -25.2120 hn         1 Y2C       0.497000
     13 H4         -20.1130    -7.4300   -25.2730 hn         1 Y2C       0.497000
@<TRIPOS>BOND
     1     1     2 ar  
     2     1     5 ar  
     3     1     6 1   
     4     2     3 ar  
     5     2     8 1   
     6     3     7 ar  
     7     3    10 1   
     8     4     5 ar  
     9     4     7 ar  
    10     4    11 1   
    11     5     9 1   
    12     6    12 1   
    13     6    13 1   
@<TRIPOS>SUBSTRUCTURE
     1 Y2C         1 TEMP              0 ****  ****    0 ROOT
