@<TRIPOS>MOLECULE
Y2D
   52    55     1     0     0
SMALL
bcc


@<TRIPOS>ATOM
      1 C4           6.1540     2.6550   -31.3650 ca         1 Y2D      -0.111500
      2 C14          8.2560    -4.2950   -33.2850 ca         1 Y2D      -0.063000
      3 C5           5.0000     2.4310   -32.1010 ca         1 Y2D      -0.063300
      4 C6           4.5930     1.0400   -32.4930 c3         1 Y2D       0.180700
      5 C11          4.7630    -2.8340   -32.9550 cc         1 Y2D      -0.236600
      6 C7           2.7430    -0.4300   -32.1910 c5         1 Y2D       0.127100
      7 C8           1.2600    -0.3360   -31.8510 c5         1 Y2D       0.101000
      8 C9           1.9970    -2.6190   -31.5140 c5         1 Y2D       0.103000
      9 C10          3.1800    -1.6610   -31.3860 c5         1 Y2D      -0.005000
     10 C12          6.0720    -3.2190   -32.7800 cd         1 Y2D       0.330800
     11 C13          6.9730    -3.9260   -33.6830 ca         1 Y2D      -0.227800
     12 N1           0.8650    -1.7110   -31.6030 n          1 Y2D      -0.492800
     13 N2           4.4340    -2.2530   -31.7890 na         1 Y2D       0.104400
     14 C3           6.5050     3.9360   -30.9580 ca         1 Y2D      -0.081500
     15 N3           6.4420    -2.8450   -31.5330 nd         1 Y2D      -0.354000
     16 C1           6.0040     6.3950   -30.8190 c3         1 Y2D       0.720200
     17 C15          9.0670    -4.9780   -34.1730 ca         1 Y2D      -0.247300
     18 C16          8.5730    -5.2730   -35.4340 ca         1 Y2D       0.404200
     19 C17          6.5810    -4.2730   -34.9760 ca         1 Y2D       0.407200
     20 C18         -0.4330    -2.0270   -31.4160 c          1 Y2D       0.679300
     21 C19         -0.7490    -3.4660   -31.2190 ce         1 Y2D      -0.253200
     22 C2           5.6900     5.0080   -31.2860 ca         1 Y2D      -0.188300
     23 C20         -1.9680    -3.8570   -30.8610 c2         1 Y2D      -0.123000
     24 C21          4.1940     3.5180   -32.4360 ca         1 Y2D      -0.111500
     25 C22          4.5330     4.7970   -32.0340 ca         1 Y2D      -0.081500
     26 F1           5.9610     7.2860   -31.8180 f          1 Y2D      -0.234633
     27 F2           7.2160     6.4880   -30.2640 f          1 Y2D      -0.234633
     28 F3           5.1200     6.8170   -29.9020 f          1 Y2D      -0.234633
     29 N4           5.4570    -2.2690   -30.9470 nc         1 Y2D      -0.186800
     30 N5           7.3530    -4.9270   -35.8300 nb         1 Y2D      -0.667000
     31 O1           3.3770     0.7570   -31.8270 os         1 Y2D      -0.392600
     32 O2          -1.3010    -1.1630   -31.4190 o          1 Y2D      -0.592100
     33 H2           6.7910     1.8220   -31.0930 ha         1 Y2D       0.143000
     34 H4           5.3830     0.3330   -32.2190 h1         1 Y2D       0.042200
     35 H3           4.4550     0.9720   -33.5800 h1         1 Y2D       0.042200
     36 H11          4.0770    -2.9290   -33.7810 h4         1 Y2D       0.189000
     37 H5           2.8670    -0.6340   -33.2660 h1         1 Y2D       0.049700
     38 H7           1.1200     0.2840   -30.9600 h1         1 Y2D       0.077700
     39 H6           0.6830     0.1060   -32.6630 h1         1 Y2D       0.077700
     40 H8           1.9360    -3.2740   -30.6460 h1         1 Y2D       0.059700
     41 H9           2.0830    -3.2440   -32.4070 h1         1 Y2D       0.059700
     42 H10          3.3090    -1.3690   -30.3420 h1         1 Y2D       0.119700
     43 H1           7.4080     4.0750   -30.3800 ha         1 Y2D       0.150000
     44 H13         10.0670    -5.2810   -33.8930 ha         1 Y2D       0.145000
     45 H14          9.1830    -5.8100   -36.1520 h4         1 Y2D       0.021100
     46 H15          5.5920    -4.0090   -35.3370 h4         1 Y2D       0.011100
     47 H16          0.0240    -4.2070   -31.3760 ha         1 Y2D       0.128000
     48 H18         -2.1990    -4.9040   -30.7230 ha         1 Y2D       0.128500
     49 H17         -2.7700    -3.1500   -30.6920 ha         1 Y2D       0.128500
     50 H19          3.2930     3.3660   -33.0170 ha         1 Y2D       0.143000
     51 H20          3.8890     5.6240   -32.3060 ha         1 Y2D       0.150000
     52 H12          8.6140    -4.0540   -32.2920 ha         1 Y2D       0.158000
@<TRIPOS>BOND
     1     1     3 ar  
     2     1    14 ar  
     3     1    33 1   
     4     2    11 ar  
     5     2    17 ar  
     6     2    52 1   
     7     3     4 1   
     8     3    24 ar  
     9     4    31 1   
    10     4    34 1   
    11     4    35 1   
    12     5    10 2   
    13     5    13 1   
    14     5    36 1   
    15     6     7 1   
    16     6     9 1   
    17     6    31 1   
    18     6    37 1   
    19     7    12 1   
    20     7    38 1   
    21     7    39 1   
    22     8     9 1   
    23     8    12 1   
    24     8    40 1   
    25     8    41 1   
    26     9    13 1   
    27     9    42 1   
    28    10    11 1   
    29    10    15 1   
    30    11    19 ar  
    31    12    20 1   
    32    13    29 1   
    33    14    22 ar  
    34    14    43 1   
    35    15    29 2   
    36    16    22 1   
    37    16    26 1   
    38    16    27 1   
    39    16    28 1   
    40    17    18 ar  
    41    17    44 1   
    42    18    30 ar  
    43    18    45 1   
    44    19    30 ar  
    45    19    46 1   
    46    20    21 1   
    47    20    32 2   
    48    21    23 2   
    49    21    47 1   
    50    22    25 ar  
    51    23    48 1   
    52    23    49 1   
    53    24    25 ar  
    54    24    50 1   
    55    25    51 1   
@<TRIPOS>SUBSTRUCTURE
     1 Y2D         1 TEMP              0 ****  ****    0 ROOT
