@<TRIPOS>MOLECULE
Y2D
   52    55     1     0     0
SMALL
No Charge or Current Charge


@<TRIPOS>ATOM
      1 C4           5.6300     2.6070   -30.7330 ca         1 Y2D      -0.093500
      2 C14          8.2570    -4.1700   -33.3750 ca         1 Y2D      -0.045000
      3 C5           5.0610     2.2880   -31.9800 ca         1 Y2D      -0.063300
      4 C6           4.6320     0.8610   -32.2860 c3         1 Y2D       0.203900
      5 C11          4.7790    -2.6820   -32.9700 cc         1 Y2D      -0.204000
      6 C7           2.5760    -0.5270   -32.2430 c5         1 Y2D       0.150300
      7 C8           1.0960    -0.3810   -31.7970 c5         1 Y2D       0.101000
      8 C9           1.8820    -2.6900   -31.4520 c5         1 Y2D       0.103000
      9 C10          3.0770    -1.7010   -31.3480 c5         1 Y2D       0.024300
     10 C12          6.0400    -3.1600   -32.7500 cd         1 Y2D       0.265500
     11 C13          6.9760    -3.7070   -33.7450 ca         1 Y2D      -0.162500
     12 N1           0.7160    -1.7830   -31.5210 n          1 Y2D      -0.425800
     13 N2           4.3630    -2.2980   -31.7190 na         1 Y2D       0.125800
     14 C3           6.0280     3.9250   -30.4480 ca         1 Y2D      -0.063500
     15 N3           6.3360    -3.0600   -31.4050 nd         1 Y2D      -0.354000
     16 C1           6.2900     6.3860   -31.0970 c3         1 Y2D       0.356300
     17 C15          9.1000    -4.6790   -34.3750 ca         1 Y2D      -0.164000
     18 C16          8.6470    -4.7130   -35.7030 ca         1 Y2D       0.338900
     19 C17          6.6100    -3.7820   -35.1050 ca         1 Y2D       0.341900
     20 C18         -0.6240    -2.1810   -31.3500 c          1 Y2D       0.612300
     21 C19         -0.9170    -3.6280   -31.0970 ce         1 Y2D      -0.303200
     22 C2           5.8670     4.9460   -31.4100 ca         1 Y2D      -0.188300
     23 C20         -2.0740    -4.0840   -30.5550 c2         1 Y2D      -0.223000
     24 C21          4.8880     3.3040   -32.9370 ca         1 Y2D      -0.093500
     25 C22          5.2850     4.6230   -32.6550 ca         1 Y2D      -0.063500
     26 F1           6.6690     7.0640   -32.2050 f          1 Y2D      -0.113333
     27 F2           7.3340     6.4410   -30.2370 f          1 Y2D      -0.113333
     28 F3           5.2780     7.0840   -30.5340 f          1 Y2D      -0.113333
     29 N4           5.3170    -2.5390   -30.7780 nc         1 Y2D      -0.186800
     30 N5           7.4220    -4.2730   -36.0700 nb         1 Y2D      -0.667000
     31 O1           3.2550     0.7080   -31.8950 os         1 Y2D      -0.439000
     32 O2          -1.5200    -1.3480   -31.3520 o          1 Y2D      -0.592100
     33 H2           5.7610     1.8330   -29.9800 ha         1 Y2D       0.125000
     34 H4           5.2800     0.1680   -31.7350 h1         1 Y2D       0.042200
     35 H3           4.7560     0.6630   -33.3590 h1         1 Y2D       0.042200
     36 H11          4.1800    -2.5870   -33.8650 h4         1 Y2D       0.171000
     37 H5           2.6620    -0.7350   -33.3190 h1         1 Y2D       0.049700
     38 H7           1.0030     0.2330   -30.8910 h1         1 Y2D       0.077700
     39 H6           0.4800     0.0670   -32.5870 h1         1 Y2D       0.077700
     40 H8           1.8440    -3.3570   -30.5790 h1         1 Y2D       0.059700
     41 H9           1.9440    -3.3060   -32.3590 h1         1 Y2D       0.059700
     42 H10          3.1450    -1.3420   -30.3130 h1         1 Y2D       0.119700
     43 H1           6.4590     4.1480   -29.4740 ha         1 Y2D       0.132000
     44 H13         10.0930    -5.0450   -34.1310 ha         1 Y2D       0.127000
     45 H14          9.2820    -5.1040   -36.4980 h4         1 Y2D       0.021100
     46 H15          5.6340    -3.4390   -35.4430 h4         1 Y2D       0.011100
     47 H16         -0.1190    -4.3350   -31.3120 ha         1 Y2D       0.178000
     48 H18         -2.2370    -5.1450   -30.3580 ha         1 Y2D       0.178500
     49 H17         -2.8940    -3.4130   -30.2920 ha         1 Y2D       0.178500
     50 H19          4.4410     3.0730   -33.9010 ha         1 Y2D       0.125000
     51 H20          5.1340     5.3930   -33.4100 ha         1 Y2D       0.132000
     52 H12          8.5950    -4.1370   -32.3410 ha         1 Y2D       0.140000
@<TRIPOS>BOND
     1     1     3 ar  
     2     1    14 ar  
     3     1    33 1   
     4     2    11 ar  
     5     2    17 ar  
     6     2    52 1   
     7     3     4 1   
     8     3    24 ar  
     9     4    31 1   
    10     4    34 1   
    11     4    35 1   
    12     5    10 2   
    13     5    13 1   
    14     5    36 1   
    15     6     7 1   
    16     6     9 1   
    17     6    31 1   
    18     6    37 1   
    19     7    12 1   
    20     7    38 1   
    21     7    39 1   
    22     8     9 1   
    23     8    12 1   
    24     8    40 1   
    25     8    41 1   
    26     9    13 1   
    27     9    42 1   
    28    10    11 1   
    29    10    15 1   
    30    11    19 ar  
    31    12    20 1   
    32    13    29 1   
    33    14    22 ar  
    34    14    43 1   
    35    15    29 2   
    36    16    22 1   
    37    16    26 1   
    38    16    27 1   
    39    16    28 1   
    40    17    18 ar  
    41    17    44 1   
    42    18    30 ar  
    43    18    45 1   
    44    19    30 ar  
    45    19    46 1   
    46    20    21 1   
    47    20    32 2   
    48    21    23 2   
    49    21    47 1   
    50    22    25 ar  
    51    23    48 1   
    52    23    49 1   
    53    24    25 ar  
    54    24    50 1   
    55    25    51 1   
@<TRIPOS>SUBSTRUCTURE
     1 Y2D         1 TEMP              0 ****  ****    0 ROOT
