@<TRIPOS>MOLECULE
Y2F
   59    61     1     0     0
SMALL
bcc


@<TRIPOS>ATOM
      1 N01         -5.3200    -0.5120    -0.7250 nb         1 Y2F      -0.754000
      2 C02         -6.5020    -0.2950    -0.1590 ca         1 Y2F       0.663200
      3 N02         -7.5190    -1.1420    -0.5010 nv         1 Y2F      -0.942500
      4 C03         -6.7090     0.7270     0.7830 ca         1 Y2F      -0.314300
      5 C04         -5.6490     1.5380     1.1350 ca         1 Y2F       0.000700
      6 C05         -4.4100     1.3010     0.5310 ca         1 Y2F      -0.298300
      7 C06         -4.2920     0.2700    -0.3850 ca         1 Y2F       0.460600
      8 C07         -5.8060     2.6300     2.1490 c3         1 Y2F      -0.053800
      9 C08         -2.9750    -0.0440    -1.0370 c3         1 Y2F      -0.110700
     10 O09         -0.2690    -0.6730    -1.3530 os         1 Y2F      -0.428600
     11 N1          -0.7860    -2.0820     1.1640 n7         1 Y2F      -0.774200
     12 C10          0.9030    -0.8850    -2.1040 c3         1 Y2F       0.132400
     13 C11          1.7240     0.3850    -2.0520 c3         1 Y2F       0.171800
     14 N12          2.1400     0.6570    -0.6950 n7         1 Y2F      -0.822200
     15 C13          2.9410     1.8490    -0.5000 c3         1 Y2F       0.181500
     16 C14          2.1880     3.1600    -0.7260 c3         1 Y2F      -0.129100
     17 C15          3.5340     1.8210     0.9160 c3         1 Y2F      -0.028100
     18 C2          -0.5390    -2.7490    -0.1090 c5         1 Y2F       0.108800
     19 C21          4.4660     0.6670     1.1410 ca         1 Y2F      -0.038300
     20 C22          3.9980    -0.5790     1.5570 ca         1 Y2F      -0.120000
     21 C23          4.8720    -1.6400     1.7360 ca         1 Y2F      -0.106000
     22 C24          6.2330    -1.4890     1.5000 ca         1 Y2F      -0.172000
     23 C25          6.6800    -0.2510     1.0850 ca         1 Y2F       0.130900
     24 F25          7.9950    -0.0770     0.8550 f          1 Y2F      -0.149900
     25 C26          5.8290     0.8230     0.9030 ca         1 Y2F      -0.173000
     26 C3          -1.0910    -1.8040    -1.1780 c5         1 Y2F       0.111100
     27 C4          -2.3910    -1.3540    -0.5130 c5         1 Y2F      -0.080700
     28 C5          -2.0390    -1.3310     0.9940 c5         1 Y2F       0.142800
     29 HN02        -7.3960    -1.6500    -1.3620 hn         1 Y2F       0.411300
     30 HN0A        -8.4600    -0.8180    -0.3520 hn         1 Y2F       0.411300
     31 H03         -7.6900     0.8730     1.2190 ha         1 Y2F       0.137000
     32 H05         -3.5540     1.9200     0.7700 ha         1 Y2F       0.139000
     33 H07         -5.3430     2.3410     3.0940 hc         1 Y2F       0.046700
     34 H07A        -5.3140     3.5460     1.8200 hc         1 Y2F       0.046700
     35 H07B        -6.8520     2.8540     2.3470 hc         1 Y2F       0.046700
     36 H08         -3.1240    -0.1180    -2.1180 hc         1 Y2F       0.060700
     37 H08A        -2.2740     0.7730    -0.8600 hc         1 Y2F       0.060700
     38 HN1         -0.0380    -1.4190     1.3170 hn         1 Y2F       0.346800
     39 H10          1.4970    -1.7140    -1.6990 h1         1 Y2F       0.032200
     40 H10A         0.6590    -1.1330    -3.1460 h1         1 Y2F       0.032200
     41 H11          2.6120     0.2410    -2.6740 h1         1 Y2F       0.036700
     42 H11A         1.1470     1.1980    -2.5200 h1         1 Y2F       0.036700
     43 HN12         1.3260     0.6930    -0.0920 hn         1 Y2F       0.365800
     44 H13          3.7720     1.8000    -1.2140 h1         1 Y2F       0.059700
     45 H14          1.7400     3.2010    -1.7200 hc         1 Y2F       0.038033
     46 H14A         1.3840     3.2740     0.0060 hc         1 Y2F       0.038033
     47 H14B         2.8520     4.0210    -0.6320 hc         1 Y2F       0.038033
     48 H15          4.0630     2.7610     1.0940 hc         1 Y2F       0.048700
     49 H15A         2.7110     1.7860     1.6360 hc         1 Y2F       0.048700
     50 H2           0.5200    -2.9870    -0.2240 h1         1 Y2F       0.060200
     51 H2'A        -1.0870    -3.6950    -0.1550 h1         1 Y2F       0.060200
     52 H22          2.9410    -0.7190     1.7430 ha         1 Y2F       0.137000
     53 H23          4.4950    -2.6000     2.0640 ha         1 Y2F       0.134000
     54 H24          6.9260    -2.3090     1.6390 ha         1 Y2F       0.147000
     55 H26          6.2270     1.7780     0.5810 ha         1 Y2F       0.143000
     56 H3          -1.2700    -2.3060    -2.1390 h1         1 Y2F       0.050700
     57 H4          -3.1260    -2.1450    -0.6920 hc         1 Y2F       0.075700
     58 H5          -2.8440    -1.7820     1.5790 h1         1 Y2F       0.051200
     59 H5'A        -1.9160    -0.3100     1.3630 h1         1 Y2F       0.051200
@<TRIPOS>BOND
     1     1     2 ar  
     2     1     7 ar  
     3     2     3 1   
     4     2     4 ar  
     5     3    29 1   
     6     3    30 1   
     7     4     5 ar  
     8     4    31 1   
     9     5     6 ar  
    10     5     8 1   
    11     6     7 ar  
    12     6    32 1   
    13     7     9 1   
    14     8    33 1   
    15     8    34 1   
    16     8    35 1   
    17     9    27 1   
    18     9    36 1   
    19     9    37 1   
    20    10    12 1   
    21    10    26 1   
    22    11    18 1   
    23    11    28 1   
    24    11    38 1   
    25    12    13 1   
    26    12    39 1   
    27    12    40 1   
    28    13    14 1   
    29    13    41 1   
    30    13    42 1   
    31    14    15 1   
    32    14    43 1   
    33    15    16 1   
    34    15    17 1   
    35    15    44 1   
    36    16    45 1   
    37    16    46 1   
    38    16    47 1   
    39    17    19 1   
    40    17    48 1   
    41    17    49 1   
    42    18    26 1   
    43    18    50 1   
    44    18    51 1   
    45    19    20 ar  
    46    19    25 ar  
    47    20    21 ar  
    48    20    52 1   
    49    21    22 ar  
    50    21    53 1   
    51    22    23 ar  
    52    22    54 1   
    53    23    24 1   
    54    23    25 ar  
    55    25    55 1   
    56    26    27 1   
    57    26    56 1   
    58    27    28 1   
    59    27    57 1   
    60    28    58 1   
    61    28    59 1   
@<TRIPOS>SUBSTRUCTURE
     1 Y2F         1 TEMP              0 ****  ****    0 ROOT
