@<TRIPOS>MOLECULE
Y2F
   59    61     1     0     0
SMALL
No Charge or Current Charge


@<TRIPOS>ATOM
      1 N01         -5.4650    -0.1850    -0.8470 nb         1 Y2F      -0.754000
      2 C02         -6.5570     0.1710    -0.1870 ca         1 Y2F       0.597900
      3 N02         -7.6490    -0.3590    -0.7420 nv         1 Y2F      -1.052900
      4 C03         -6.5870     1.0010     0.9350 ca         1 Y2F      -0.231000
      5 C04         -5.3730     1.5070     1.4220 ca         1 Y2F       0.000700
      6 C05         -4.2010     1.1380     0.7410 ca         1 Y2F      -0.215000
      7 C06         -4.2880     0.2940    -0.3840 ca         1 Y2F       0.395300
      8 C07         -5.3240     2.4110     2.6420 c3         1 Y2F      -0.053800
      9 C08         -3.0370    -0.1300    -1.1400 c3         1 Y2F      -0.110700
     10 O09         -0.2380    -0.9600    -1.4870 os         1 Y2F      -0.475000
     11 N1          -0.8280    -2.5020     0.8240 n7         1 Y2F      -0.829400
     12 C10          1.0280    -1.2370    -2.1280 c3         1 Y2F       0.155600
     13 C11          1.8870     0.0540    -2.1020 c3         1 Y2F       0.171800
     14 N12          2.0920     0.5350    -0.7140 n7         1 Y2F      -0.877400
     15 C13          2.7980     1.8210    -0.5440 c3         1 Y2F       0.181500
     16 C14          1.8530     2.9870    -0.9100 c3         1 Y2F      -0.129100
     17 C15          3.3160     1.9450     0.9120 c3         1 Y2F      -0.028100
     18 C2          -0.8000    -3.1610    -0.5060 c5         1 Y2F       0.108800
     19 C21          4.3920     0.9190     1.2590 ca         1 Y2F      -0.038300
     20 C22          4.0830    -0.2040     2.0540 ca         1 Y2F      -0.102000
     21 C23          5.0770    -1.1450     2.3760 ca         1 Y2F      -0.088000
     22 C24          6.3890    -0.9680     1.9040 ca         1 Y2F      -0.154000
     23 C25          6.7000     0.1480     1.1130 ca         1 Y2F       0.166000
     24 F25          7.9610     0.3190     0.6590 f          1 Y2F      -0.185000
     25 C26          5.7100     1.0900     0.7910 ca         1 Y2F      -0.155000
     26 C3          -1.2340    -2.0220    -1.4740 c5         1 Y2F       0.134300
     27 C4          -2.4860    -1.5160    -0.7060 c5         1 Y2F      -0.080700
     28 C5          -2.0350    -1.6260     0.7900 c5         1 Y2F       0.142800
     29 HN02        -7.5080    -0.7370    -1.6710 hn         1 Y2F       0.466500
     30 HN0A        -8.5360     0.0980    -0.5660 hn         1 Y2F       0.466500
     31 H03         -7.5290     1.2440     1.4160 ha         1 Y2F       0.119000
     32 H05         -3.2330     1.4980     1.0770 ha         1 Y2F       0.121000
     33 H07         -5.1670     1.8260     3.5550 hc         1 Y2F       0.046700
     34 H07A        -4.5080     3.1400     2.5650 hc         1 Y2F       0.046700
     35 H07B        -6.2580     2.9730     2.7600 hc         1 Y2F       0.046700
     36 H08         -3.2480    -0.1450    -2.2160 hc         1 Y2F       0.060700
     37 H08A        -2.2630     0.6350    -1.0070 hc         1 Y2F       0.060700
     38 HN1         -0.0160    -1.8720     0.8370 hn         1 Y2F       0.402000
     39 H10          1.5680    -2.0370    -1.6060 h1         1 Y2F       0.032200
     40 H10A         0.8760    -1.5470    -3.1700 h1         1 Y2F       0.032200
     41 H11          2.8530    -0.1510    -2.5820 h1         1 Y2F       0.036700
     42 H11A         1.3730     0.8120    -2.7070 h1         1 Y2F       0.036700
     43 HN12         1.1640     0.6090    -0.2820 hn         1 Y2F       0.421000
     44 H13          3.6720     1.8650    -1.2090 h1         1 Y2F       0.059700
     45 H14          1.5560     2.9440    -1.9640 hc         1 Y2F       0.038033
     46 H14A         0.9460     2.9680    -0.2930 hc         1 Y2F       0.038033
     47 H14B         2.3540     3.9490    -0.7490 hc         1 Y2F       0.038033
     48 H15          3.7260     2.9520     1.0550 hc         1 Y2F       0.048700
     49 H15A         2.4700     1.8660     1.6070 hc         1 Y2F       0.048700
     50 H2           0.1920    -3.5700    -0.7440 h1         1 Y2F       0.060200
     51 H2'A        -1.5170    -3.9940    -0.5440 h1         1 Y2F       0.060200
     52 H22          3.0690    -0.3490     2.4190 ha         1 Y2F       0.119000
     53 H23          4.8300    -2.0100     2.9880 ha         1 Y2F       0.116000
     54 H24          7.1620    -1.6920     2.1480 ha         1 Y2F       0.129000
     55 H26          5.9680     1.9500     0.1780 ha         1 Y2F       0.125000
     56 H3          -1.4510    -2.3600    -2.4970 h1         1 Y2F       0.050700
     57 H4          -3.3040    -2.2260    -0.8780 hc         1 Y2F       0.075700
     58 H5          -2.8450    -2.0480     1.4020 h1         1 Y2F       0.051200
     59 H5'A        -1.7910    -0.6400     1.2130 h1         1 Y2F       0.051200
@<TRIPOS>BOND
     1     1     2 ar  
     2     1     7 ar  
     3     2     3 1   
     4     2     4 ar  
     5     3    29 1   
     6     3    30 1   
     7     4     5 ar  
     8     4    31 1   
     9     5     6 ar  
    10     5     8 1   
    11     6     7 ar  
    12     6    32 1   
    13     7     9 1   
    14     8    33 1   
    15     8    34 1   
    16     8    35 1   
    17     9    27 1   
    18     9    36 1   
    19     9    37 1   
    20    10    12 1   
    21    10    26 1   
    22    11    18 1   
    23    11    28 1   
    24    11    38 1   
    25    12    13 1   
    26    12    39 1   
    27    12    40 1   
    28    13    14 1   
    29    13    41 1   
    30    13    42 1   
    31    14    15 1   
    32    14    43 1   
    33    15    16 1   
    34    15    17 1   
    35    15    44 1   
    36    16    45 1   
    37    16    46 1   
    38    16    47 1   
    39    17    19 1   
    40    17    48 1   
    41    17    49 1   
    42    18    26 1   
    43    18    50 1   
    44    18    51 1   
    45    19    20 ar  
    46    19    25 ar  
    47    20    21 ar  
    48    20    52 1   
    49    21    22 ar  
    50    21    53 1   
    51    22    23 ar  
    52    22    54 1   
    53    23    24 1   
    54    23    25 ar  
    55    25    55 1   
    56    26    27 1   
    57    26    56 1   
    58    27    28 1   
    59    27    57 1   
    60    28    58 1   
    61    28    59 1   
@<TRIPOS>SUBSTRUCTURE
     1 Y2F         1 TEMP              0 ****  ****    0 ROOT
