@<TRIPOS>MOLECULE
Y2G
   42    43     1     0     0
SMALL
No Charge or Current Charge


@<TRIPOS>ATOM
      1 N1         -17.2680    15.5260    26.4040 n          1 Y2G      -0.421800
      2 C4         -18.2650    14.9510    27.3520 c6         1 Y2G       0.084000
      3 C5         -18.8750    13.5950    26.9300 c6         1 Y2G       0.091500
      4 C7         -21.5320    12.4350    25.9380 cc         1 Y2G       0.055500
      5 C8         -22.5320    11.5320    25.6800 cd         1 Y2G      -0.103000
      6 C10        -23.0750    12.6980    27.5060 cc         1 Y2G       0.158300
      7 C13        -17.5690    15.3150    24.9550 c6         1 Y2G       0.084000
      8 N          -15.6850    17.1990    25.8750 ns         1 Y2G      -0.502900
      9 C          -17.1170    21.1650    25.1990 c3         1 Y2G       0.146900
     10 O          -16.3310    19.9630    25.1320 os         1 Y2G      -0.465000
     11 C1         -15.5810    19.6730    26.3280 c3         1 Y2G       0.120600
     12 C11        -23.6910    13.3070    28.7290 c3         1 Y2G      -0.127400
     13 C12        -18.2480    13.9700    24.5920 c6         1 Y2G       0.091500
     14 C2         -14.8050    18.3520    26.1150 c3         1 Y2G       0.108000
     15 C3         -16.4160    16.5600    26.8460 c          1 Y2G       0.650100
     16 C9         -23.5070    11.6930    26.6860 cd         1 Y2G      -0.200000
     17 N2         -19.3400    13.5700    25.5160 n          1 Y2G      -0.410800
     18 O1         -16.3230    16.8670    28.0240 o          1 Y2G      -0.644100
     19 O2         -20.2090    12.0930    23.9840 o          1 Y2G      -0.589100
     20 O3         -21.8670    13.1770    27.0560 os         1 Y2G      -0.238000
     21 H8         -17.8030    14.8250    28.3420 h1         1 Y2G       0.056200
     22 H9         -19.0810    15.6780    27.4690 h1         1 Y2G       0.056200
     23 H11        -18.0960    12.8270    27.0390 h1         1 Y2G       0.064450
     24 H10        -19.6580    13.3270    27.6430 h1         1 Y2G       0.064450
     25 H12        -22.5630    10.8300    24.8520 ha         1 Y2G       0.156000
     26 H20        -16.6460    15.3860    24.3630 h1         1 Y2G       0.056200
     27 H19        -18.2280    16.1320    24.6260 h1         1 Y2G       0.056200
     28 H7         -15.8310    16.8990    24.9220 hn         1 Y2G       0.313500
     29 H          -17.6570    21.3200    24.2570 h1         1 Y2G       0.029033
     30 H1         -17.8540    21.1030    26.0100 h1         1 Y2G       0.029033
     31 H2         -16.4780    22.0400    25.3750 h1         1 Y2G       0.029033
     32 H4         -14.8650    20.4780    26.5410 h1         1 Y2G       0.037200
     33 H3         -16.2490    19.5700    27.1930 h1         1 Y2G       0.037200
     34 H16        -23.0180    13.2150    29.5900 hc         1 Y2G       0.057367
     35 H15        -23.8980    14.3720    28.5690 hc         1 Y2G       0.057367
     36 H14        -24.6350    12.8110    28.9810 hc         1 Y2G       0.057367
     37 H17        -17.4850    13.1780    24.5970 h1         1 Y2G       0.064450
     38 H18        -18.6310    14.0410    23.5640 h1         1 Y2G       0.064450
     39 H6         -14.1290    18.4650    25.2580 h1         1 Y2G       0.065700
     40 H5         -14.1870    18.1510    27.0000 h1         1 Y2G       0.065700
     41 H13        -24.4320    11.1360    26.7910 ha         1 Y2G       0.145000
     42 C6         -20.3290    12.6530    25.0690 c          1 Y2G       0.551600
@<TRIPOS>BOND
     1     1     2 1   
     2     1     7 1   
     3     1    15 1   
     4     2     3 1   
     5     2    21 1   
     6     2    22 1   
     7     3    17 1   
     8     3    23 1   
     9     3    24 1   
    10     4     5 2   
    11     4    20 1   
    12     4    42 1   
    13     5    16 1   
    14     5    25 1   
    15     6    12 1   
    16     6    16 2   
    17     6    20 1   
    18     7    13 1   
    19     7    26 1   
    20     7    27 1   
    21     8    14 1   
    22     8    15 1   
    23     8    28 1   
    24     9    10 1   
    25     9    29 1   
    26     9    30 1   
    27     9    31 1   
    28    10    11 1   
    29    11    14 1   
    30    11    32 1   
    31    11    33 1   
    32    12    34 1   
    33    12    35 1   
    34    12    36 1   
    35    13    17 1   
    36    13    37 1   
    37    13    38 1   
    38    14    39 1   
    39    14    40 1   
    40    15    18 2   
    41    16    41 1   
    42    17    42 1   
    43    19    42 2   
@<TRIPOS>SUBSTRUCTURE
     1 Y2G         1 TEMP              0 ****  ****    0 ROOT
