@<TRIPOS>MOLECULE
Y2G
   42    43     1     0     0
SMALL
bcc


@<TRIPOS>ATOM
      1 N1         -17.3840    15.3830    26.2770 n          1 Y2G      -0.488800
      2 C4         -18.3890    14.8740    27.1960 c6         1 Y2G       0.084000
      3 C5         -18.6810    13.4140    26.9110 c6         1 Y2G       0.091500
      4 C7         -21.3470    12.5260    25.8750 cc         1 Y2G       0.165200
      5 C8         -22.3950    11.6680    25.7660 cd         1 Y2G      -0.186300
      6 C10        -22.7890    13.1190    27.4120 cc         1 Y2G       0.268000
      7 C13        -17.6420    15.1180    24.8740 c6         1 Y2G       0.084000
      8 N          -15.9130    17.1150    25.7670 ns         1 Y2G      -0.569900
      9 C          -17.4220    20.9980    25.5220 c3         1 Y2G       0.123700
     10 O          -16.6180    19.8690    25.3030 os         1 Y2G      -0.418600
     11 C1         -15.8780    19.5050    26.4400 c3         1 Y2G       0.097400
     12 C11        -23.2660    13.9730    28.5220 c3         1 Y2G      -0.127400
     13 C12        -17.9710    13.6500    24.6380 c6         1 Y2G       0.091500
     14 C2         -15.0900    18.2470    26.1310 c3         1 Y2G       0.108000
     15 C3         -16.5630    16.3910    26.7190 c          1 Y2G       0.784100
     16 C9         -23.3260    12.0470    26.7700 cd         1 Y2G      -0.283300
     17 N2         -19.0440    13.2370    25.5170 n          1 Y2G      -0.477800
     18 O1         -16.3910    16.6000    27.9150 o          1 Y2G      -0.644100
     19 O2         -20.2190    12.2130    23.8760 o          1 Y2G      -0.589100
     20 O3         -21.5900    13.4120    26.8720 os         1 Y2G      -0.326800
     21 H8         -18.0270    14.9720    28.2150 h1         1 Y2G       0.056200
     22 H9         -19.3170    15.4530    27.1110 h1         1 Y2G       0.056200
     23 H11        -17.7800    12.8210    27.1020 h1         1 Y2G       0.064450
     24 H10        -19.4490    13.0490    27.5830 h1         1 Y2G       0.064450
     25 H12        -22.4900    10.8610    25.0580 ha         1 Y2G       0.174000
     26 H20        -16.7570    15.3360    24.2780 h1         1 Y2G       0.056200
     27 H19        -18.4660    15.7380    24.4970 h1         1 Y2G       0.056200
     28 H7         -16.2790    17.1390    24.8300 hn         1 Y2G       0.313500
     29 H          -17.9660    21.2100    24.6030 h1         1 Y2G       0.029033
     30 H1         -18.1500    20.8330    26.3260 h1         1 Y2G       0.029033
     31 H2         -16.8300    21.8830    25.7840 h1         1 Y2G       0.029033
     32 H4         -15.1780    20.3020    26.7300 h1         1 Y2G       0.037200
     33 H3         -16.5410    19.3330    27.2980 h1         1 Y2G       0.037200
     34 H16        -22.5850    13.9440    29.3750 hc         1 Y2G       0.057367
     35 H15        -23.3620    15.0150    28.2140 hc         1 Y2G       0.057367
     36 H14        -24.2410    13.6290    28.8570 hc         1 Y2G       0.057367
     37 H17        -17.0840    13.0360    24.8260 h1         1 Y2G       0.064450
     38 H18        -18.2610    13.5110    23.6000 h1         1 Y2G       0.064450
     39 H6         -14.4050    18.4360    25.3030 h1         1 Y2G       0.065700
     40 H5         -14.4760    17.9920    26.9940 h1         1 Y2G       0.065700
     41 H13        -24.2760    11.5870    26.9900 ha         1 Y2G       0.163000
     42 C6         -20.1520    12.6400    25.0230 c          1 Y2G       0.618600
@<TRIPOS>BOND
     1     1     2 1   
     2     1     7 1   
     3     1    15 1   
     4     2     3 1   
     5     2    21 1   
     6     2    22 1   
     7     3    17 1   
     8     3    23 1   
     9     3    24 1   
    10     4     5 2   
    11     4    20 1   
    12     4    42 1   
    13     5    16 1   
    14     5    25 1   
    15     6    12 1   
    16     6    16 2   
    17     6    20 1   
    18     7    13 1   
    19     7    26 1   
    20     7    27 1   
    21     8    14 1   
    22     8    15 1   
    23     8    28 1   
    24     9    10 1   
    25     9    29 1   
    26     9    30 1   
    27     9    31 1   
    28    10    11 1   
    29    11    14 1   
    30    11    32 1   
    31    11    33 1   
    32    12    34 1   
    33    12    35 1   
    34    12    36 1   
    35    13    17 1   
    36    13    37 1   
    37    13    38 1   
    38    14    39 1   
    39    14    40 1   
    40    15    18 2   
    41    16    41 1   
    42    17    42 1   
    43    19    42 2   
@<TRIPOS>SUBSTRUCTURE
     1 Y2G         1 TEMP              0 ****  ****    0 ROOT
