@<TRIPOS>MOLECULE
Y2I
   74    78     1     0     0
SMALL
abcg2


@<TRIPOS>ATOM
      1 C1          46.8350    33.4020    -0.1000 c3         1 Y2I      -0.044800
      2 C7          50.7340    29.2020     1.9690 c3         1 Y2I      -0.103100
      3 C8          51.1920    29.3300    -0.4900 ca         1 Y2I      -0.092300
      4 C9          52.3580    30.0620    -0.6690 ca         1 Y2I      -0.107000
      5 C10         53.2690    29.7280    -1.6700 ca         1 Y2I       0.022000
      6 C11         54.4870    30.5110    -1.8630 cc         1 Y2I      -0.151000
      7 C12         54.9860    31.5210    -1.0580 cd         1 Y2I      -0.156000
      8 C19         52.9860    28.6340    -2.4880 ca         1 Y2I      -0.099000
      9 C20         51.8180    27.8920    -2.3330 ca         1 Y2I       0.024000
     10 C21         51.5290    26.7720    -3.2270 cc         1 Y2I      -0.155000
     11 N25         51.5790    25.3990    -5.0190 nd         1 Y2I      -0.527800
     12 C26         52.0920    26.4920    -4.4890 cc         1 Y2I       0.254900
     13 C27         50.9250    28.2550    -1.3230 ca         1 Y2I      -0.095000
     14 C35         55.4470    38.0560     1.4010 c3         1 Y2I       0.151100
     15 C36         54.9000    35.7790     0.9990 c3         1 Y2I       0.151100
     16 C2          48.1970    34.0360    -0.1040 ca         1 Y2I      -0.065300
     17 C3          49.3790    33.2840    -0.1500 ca         1 Y2I      -0.110600
     18 C4          49.3380    31.7920    -0.2750 c          1 Y2I       0.612700
     19 C6          50.2260    29.6920     0.6190 c3         1 Y2I       0.164000
     20 C14         56.9400    33.0300    -1.1570 cx         1 Y2I       0.015300
     21 C15         57.4010    34.0910    -2.1020 cx         1 Y2I      -0.125400
     22 C16         58.3790    33.1020    -1.5360 cx         1 Y2I      -0.125400
     23 C18         55.4270    30.4370    -2.9100 cc         1 Y2I       0.256900
     24 C22         50.6270    25.7400    -3.0430 cd         1 Y2I      -0.157000
     25 C29         50.6210    33.9000    -0.1480 ca         1 Y2I      -0.128000
     26 C30         50.7300    35.2900    -0.1150 ca         1 Y2I       0.139100
     27 C33         53.6390    37.5320    -0.0920 c3         1 Y2I       0.167800
     28 C37         49.5690    36.0520    -0.0540 ca         1 Y2I      -0.181000
     29 C38         48.3310    35.4160    -0.0420 ca         1 Y2I      -0.081000
     30 N13         56.1190    31.9570    -1.6290 na         1 Y2I       0.166800
     31 N17         56.4000    31.3150    -2.7560 nd         1 Y2I      -0.531800
     32 N23         50.6980    24.9560    -4.1300 na         1 Y2I       0.133800
     33 N34         54.3790    37.1270     1.0920 n3         1 Y2I      -0.714600
     34 N5          50.0050    31.1250     0.6820 ns         1 Y2I      -0.507900
     35 O28         48.7530    31.2380    -1.1920 o          1 Y2I      -0.583100
     36 O31         51.9800    35.7880    -0.1480 os         1 Y2I      -0.349100
     37 H1B         46.7690    32.5740     0.6070 hc         1 Y2I       0.047700
     38 H1A         46.0760    34.1320     0.1770 hc         1 Y2I       0.047700
     39 H1C         46.5700    33.0080    -1.0810 hc         1 Y2I       0.047700
     40 H7A         50.8920    28.1260     1.9410 hc         1 Y2I       0.044033
     41 H7C         51.6830    29.6750     2.2270 hc         1 Y2I       0.044033
     42 H7B         50.0130    29.4200     2.7590 hc         1 Y2I       0.044033
     43 H9          52.5480    30.9140    -0.0260 ha         1 Y2I       0.101000
     44 H12         54.6240    31.9470    -0.1350 h4         1 Y2I       0.152000
     45 H19         53.6950    28.3500    -3.2570 ha         1 Y2I       0.113000
     46 H24A        49.3130    23.8910    -5.2750 h1         1 Y2I       0.056033
     47 H24B        50.6110    22.9160    -4.5600 h1         1 Y2I       0.056033
     48 H24C        49.3070    23.5420    -3.5400 h1         1 Y2I       0.056033
     49 H26         52.8370    27.0570    -5.0290 h4         1 Y2I       0.038100
     50 H27         49.9960    27.7090    -1.1980 ha         1 Y2I       0.110000
     51 H35A        55.9340    37.7610     2.3320 h1         1 Y2I       0.031367
     52 H35C        56.2250    38.1090     0.6230 h1         1 Y2I       0.031367
     53 H35B        55.0460    39.0610     1.5420 h1         1 Y2I       0.031367
     54 H36A        55.3960    35.5090     1.9330 h1         1 Y2I       0.031367
     55 H36C        54.1030    35.0580     0.8300 h1         1 Y2I       0.031367
     56 H36B        55.6360    35.6610     0.1860 h1         1 Y2I       0.031367
     57 H6          49.2680    29.2090     0.4120 h1         1 Y2I       0.072700
     58 H14         56.6600    33.3250    -0.1540 h1         1 Y2I       0.093700
     59 H15B        57.1290    33.9810    -3.1430 hc         1 Y2I       0.086450
     60 H15A        57.4160    35.1110    -1.7400 hc         1 Y2I       0.086450
     61 H16B        58.7640    32.3420    -2.2020 hc         1 Y2I       0.086450
     62 H16A        59.0750    33.4330    -0.7760 hc         1 Y2I       0.086450
     63 H18         55.4280    29.7820    -3.7690 h4         1 Y2I       0.039100
     64 H22         49.9620    25.5090    -2.2260 h4         1 Y2I       0.153000
     65 H29         51.5270    33.3060    -0.1940 ha         1 Y2I       0.126000
     66 H32B        51.6710    37.6900    -0.8990 h1         1 Y2I       0.040700
     67 H32A        51.7230    37.5740     0.8680 h1         1 Y2I       0.040700
     68 H33B        54.0950    37.1540    -1.0210 h1         1 Y2I       0.042700
     69 H33A        53.6740    38.6210    -0.1640 h1         1 Y2I       0.042700
     70 H37         49.5990    37.1320    -0.0130 ha         1 Y2I       0.117000
     71 H38         47.4400    36.0290     0.0160 ha         1 Y2I       0.113000
     72 H5          50.4590    31.6490     1.4140 hn         1 Y2I       0.316500
     73 C24         49.9400    23.7570    -4.3960 c3         1 Y2I       0.073900
     74 C32         52.1640    37.1890    -0.0580 c3         1 Y2I       0.166600
@<TRIPOS>BOND
     1     1    16 1   
     2     1    37 1   
     3     1    38 1   
     4     1    39 1   
     5     2    19 1   
     6     2    40 1   
     7     2    41 1   
     8     2    42 1   
     9     3     4 ar  
    10     3    13 ar  
    11     3    19 1   
    12     4     5 ar  
    13     4    43 1   
    14     5     6 1   
    15     5     8 ar  
    16     6     7 2   
    17     6    23 1   
    18     7    30 1   
    19     7    44 1   
    20     8     9 ar  
    21     8    45 1   
    22     9    10 1   
    23     9    13 ar  
    24    10    12 1   
    25    10    24 2   
    26    11    12 2   
    27    11    32 1   
    28    12    49 1   
    29    13    50 1   
    30    14    33 1   
    31    14    51 1   
    32    14    52 1   
    33    14    53 1   
    34    15    33 1   
    35    15    54 1   
    36    15    55 1   
    37    15    56 1   
    38    16    17 ar  
    39    16    29 ar  
    40    17    18 1   
    41    17    25 ar  
    42    18    34 1   
    43    18    35 2   
    44    19    34 1   
    45    19    57 1   
    46    20    21 1   
    47    20    22 1   
    48    20    30 1   
    49    20    58 1   
    50    21    22 1   
    51    21    59 1   
    52    21    60 1   
    53    22    61 1   
    54    22    62 1   
    55    23    31 2   
    56    23    63 1   
    57    24    32 1   
    58    24    64 1   
    59    25    26 ar  
    60    25    65 1   
    61    26    28 ar  
    62    26    36 1   
    63    27    33 1   
    64    27    68 1   
    65    27    69 1   
    66    27    74 1   
    67    28    29 ar  
    68    28    70 1   
    69    29    71 1   
    70    30    31 1   
    71    32    73 1   
    72    34    72 1   
    73    36    74 1   
    74    46    73 1   
    75    47    73 1   
    76    48    73 1   
    77    66    74 1   
    78    67    74 1   
@<TRIPOS>SUBSTRUCTURE
     1 Y2I         1 TEMP              0 ****  ****    0 ROOT
