@<TRIPOS>MOLECULE
Y2I
   74    78     1     0     0
SMALL
No Charge or Current Charge


@<TRIPOS>ATOM
      1 C1          46.5390    33.7070     0.5740 c3         1 Y2I      -0.044800
      2 C7          50.6700    29.3590     1.7180 c3         1 Y2I      -0.103100
      3 C8          51.3740    29.2420    -0.7150 ca         1 Y2I      -0.092300
      4 C9          52.6390    29.8630    -0.7410 ca         1 Y2I      -0.107000
      5 C10         53.6290    29.4530    -1.6560 ca         1 Y2I       0.022000
      6 C11         54.9420    30.1110    -1.7130 cc         1 Y2I      -0.151000
      7 C12         55.2810    31.1790    -0.9310 cd         1 Y2I      -0.156000
      8 C19         53.3360    28.3930    -2.5370 ca         1 Y2I      -0.099000
      9 C20         52.0810    27.7500    -2.5250 ca         1 Y2I       0.024000
     10 C21         51.8200    26.6490    -3.4640 cc         1 Y2I      -0.155000
     11 N25         52.0820    25.0910    -5.1120 nd         1 Y2I      -0.527800
     12 C26         52.6490    26.0750    -4.4430 cc         1 Y2I       0.254900
     13 C27         51.1040    28.1890    -1.6070 ca         1 Y2I      -0.095000
     14 C35         55.8570    37.7850     0.3080 c3         1 Y2I       0.151100
     15 C36         54.3290    36.2260     1.4340 c3         1 Y2I       0.151100
     16 C2          47.9590    34.2350     0.3810 ca         1 Y2I      -0.065300
     17 C3          49.1030    33.3810     0.3570 ca         1 Y2I      -0.110600
     18 C4          49.0130    31.8710     0.5630 c          1 Y2I       0.612700
     19 C6          50.3020    29.7160     0.2640 c3         1 Y2I       0.164000
     20 C14         57.3250    32.5930    -0.7340 cx         1 Y2I       0.015300
     21 C15         56.8210    34.0130    -0.5980 cx         1 Y2I      -0.125400
     22 C16         57.9960    33.7150    -1.4960 cx         1 Y2I      -0.125400
     23 C18         56.0590    29.8450    -2.5330 cc         1 Y2I       0.256900
     24 C22         50.6350    25.9730    -3.5200 cd         1 Y2I      -0.157000
     25 C29         50.3740    33.9770     0.1420 ca         1 Y2I      -0.128000
     26 C30         50.5210    35.3570    -0.0460 ca         1 Y2I       0.139100
     27 C33         53.6030    37.4340    -0.6290 c3         1 Y2I       0.167800
     28 C37         49.3870    36.1870    -0.0200 ca         1 Y2I      -0.181000
     29 C38         48.1200    35.6240     0.1940 ca         1 Y2I      -0.081000
     30 N13         56.5820    31.4800    -1.3370 na         1 Y2I       0.166800
     31 N17         57.0800    30.6560    -2.3310 nd         1 Y2I      -0.531800
     32 N23         50.8200    25.0260    -4.5350 na         1 Y2I       0.133800
     33 N34         54.4460    37.4500     0.6060 n3         1 Y2I      -0.714600
     34 N5          50.0950    31.1530     0.1020 ns         1 Y2I      -0.507900
     35 O28         48.0840    31.3120     1.1280 o          1 Y2I      -0.583100
     36 O31         51.7960    35.8410    -0.2470 os         1 Y2I      -0.349100
     37 H1B         46.3890    33.3360     1.5950 hc         1 Y2I       0.047700
     38 H1A         45.7860    34.4850     0.4010 hc         1 Y2I       0.047700
     39 H1C         46.3180    32.8910    -0.1250 hc         1 Y2I       0.047700
     40 H7A         50.8350    28.2790     1.8150 hc         1 Y2I       0.044033
     41 H7C         51.5860    29.8750     2.0290 hc         1 Y2I       0.044033
     42 H7B         49.8660    29.6410     2.4070 hc         1 Y2I       0.044033
     43 H9          52.8390    30.6710    -0.0440 ha         1 Y2I       0.101000
     44 H12         54.7530    31.7350    -0.1670 h4         1 Y2I       0.152000
     45 H19         54.0920    28.0680    -3.2440 ha         1 Y2I       0.113000
     46 H24A        49.6200    24.2020    -6.0580 h1         1 Y2I       0.056033
     47 H24B        50.2340    23.0280    -4.8540 h1         1 Y2I       0.056033
     48 H24C        48.9070    24.1450    -4.4190 h1         1 Y2I       0.056033
     49 H26         53.6660    26.3490    -4.6910 h4         1 Y2I       0.038100
     50 H27         50.1260    27.7180    -1.5780 ha         1 Y2I       0.110000
     51 H35A        56.4400    37.8720     1.2340 h1         1 Y2I       0.031367
     52 H35C        56.3200    37.0110    -0.3190 h1         1 Y2I       0.031367
     53 H35B        55.9250    38.7440    -0.2230 h1         1 Y2I       0.031367
     54 H36A        55.0010    36.2780     2.3010 h1         1 Y2I       0.031367
     55 H36C        53.3090    36.1060     1.8190 h1         1 Y2I       0.031367
     56 H36B        54.5890    35.3310     0.8530 h1         1 Y2I       0.031367
     57 H6          49.3560    29.2110     0.0200 h1         1 Y2I       0.072700
     58 H14         57.8660    32.1720     0.1120 h1         1 Y2I       0.093700
     59 H15B        55.8750    34.2650    -1.0710 hc         1 Y2I       0.086450
     60 H15A        57.0140    34.5280     0.3410 hc         1 Y2I       0.086450
     61 H16B        57.8370    33.7620    -2.5700 hc         1 Y2I       0.086450
     62 H16A        58.9830    34.0270    -1.1660 hc         1 Y2I       0.086450
     63 H18         56.1560    29.0730    -3.2840 h4         1 Y2I       0.039100
     64 H22         49.7110    26.0640    -2.9630 h4         1 Y2I       0.153000
     65 H29         51.2810    33.3800     0.1400 ha         1 Y2I       0.126000
     66 H32B        51.5550    37.6150    -1.3220 h1         1 Y2I       0.040700
     67 H32A        51.7390    37.8330     0.4360 h1         1 Y2I       0.040700
     68 H33B        53.9590    36.6560    -1.3180 h1         1 Y2I       0.042700
     69 H33A        53.7330    38.3910    -1.1510 h1         1 Y2I       0.042700
     70 H37         49.4670    37.2600    -0.1620 ha         1 Y2I       0.117000
     71 H38         47.2510    36.2790     0.2080 ha         1 Y2I       0.113000
     72 H5          50.8000    31.6750    -0.3980 hn         1 Y2I       0.316500
     73 C24         49.8340    24.0390    -4.9950 c3         1 Y2I       0.073900
     74 C32         52.0730    37.2440    -0.4280 c3         1 Y2I       0.166600
@<TRIPOS>BOND
     1     1    16 1   
     2     1    37 1   
     3     1    38 1   
     4     1    39 1   
     5     2    19 1   
     6     2    40 1   
     7     2    41 1   
     8     2    42 1   
     9     3     4 ar  
    10     3    13 ar  
    11     3    19 1   
    12     4     5 ar  
    13     4    43 1   
    14     5     6 1   
    15     5     8 ar  
    16     6     7 2   
    17     6    23 1   
    18     7    30 1   
    19     7    44 1   
    20     8     9 ar  
    21     8    45 1   
    22     9    10 1   
    23     9    13 ar  
    24    10    12 1   
    25    10    24 2   
    26    11    12 2   
    27    11    32 1   
    28    12    49 1   
    29    13    50 1   
    30    14    33 1   
    31    14    51 1   
    32    14    52 1   
    33    14    53 1   
    34    15    33 1   
    35    15    54 1   
    36    15    55 1   
    37    15    56 1   
    38    16    17 ar  
    39    16    29 ar  
    40    17    18 1   
    41    17    25 ar  
    42    18    34 1   
    43    18    35 2   
    44    19    34 1   
    45    19    57 1   
    46    20    21 1   
    47    20    22 1   
    48    20    30 1   
    49    20    58 1   
    50    21    22 1   
    51    21    59 1   
    52    21    60 1   
    53    22    61 1   
    54    22    62 1   
    55    23    31 2   
    56    23    63 1   
    57    24    32 1   
    58    24    64 1   
    59    25    26 ar  
    60    25    65 1   
    61    26    28 ar  
    62    26    36 1   
    63    27    33 1   
    64    27    68 1   
    65    27    69 1   
    66    27    74 1   
    67    28    29 ar  
    68    28    70 1   
    69    29    71 1   
    70    30    31 1   
    71    32    73 1   
    72    34    72 1   
    73    36    74 1   
    74    46    73 1   
    75    47    73 1   
    76    48    73 1   
    77    66    74 1   
    78    67    74 1   
@<TRIPOS>SUBSTRUCTURE
     1 Y2I         1 TEMP              0 ****  ****    0 ROOT
