@<TRIPOS>MOLECULE
Y2J
   39    40     1     0     0
SMALL
bcc


@<TRIPOS>ATOM
      1 N1         -17.5090    15.3040    26.0860 n          1 Y2J      -0.492800
      2 C4         -17.7740    15.0280    24.6870 c6         1 Y2J       0.086000
      3 C5         -18.1140    13.5590    24.4680 c6         1 Y2J       0.089500
      4 C7         -21.4790    12.4170    25.7280 cc         1 Y2J       0.172200
      5 C8         -22.5060    11.5320    25.6340 cd         1 Y2J      -0.185300
      6 C10        -22.9250    12.9840    27.2350 cc         1 Y2J       0.328700
      7 N          -15.9270    16.9400    25.5810 ns         1 Y2J      -0.570900
      8 C          -17.1300    20.9240    25.2910 c3         1 Y2J       0.123700
      9 O          -16.3730    19.7620    25.0820 os         1 Y2J      -0.419600
     10 C1         -15.7200    19.3240    26.2470 c3         1 Y2J       0.097400
     11 C11        -18.8250    13.3600    26.7480 c6         1 Y2J       0.089500
     12 C12        -18.5240    14.8230    27.0060 c6         1 Y2J       0.086000
     13 C2         -15.0270    18.0080    25.9550 c3         1 Y2J       0.108000
     14 C3         -16.6300    16.2610    26.5290 c          1 Y2J       0.785100
     15 C9         -23.4540    11.8940    26.6290 cd         1 Y2J      -0.261300
     16 N2         -19.1880    13.1620    25.3550 n          1 Y2J      -0.474800
     17 O1         -16.4540    16.4630    27.7260 o          1 Y2J      -0.644100
     18 O2         -20.3590    12.1070    23.7300 o          1 Y2J      -0.585100
     19 O3         -21.7450    13.3160    26.7110 os         1 Y2J      -0.310800
     20 CL         -23.4970    13.9610    28.4900 cl         1 Y2J      -0.096000
     21 H8         -18.5950    15.6500    24.3100 h1         1 Y2J       0.057700
     22 H9         -16.8920    15.2330    24.0820 h1         1 Y2J       0.057700
     23 H11        -18.4090    13.4120    23.4330 h1         1 Y2J       0.065200
     24 H10        -17.2310    12.9410    24.6600 h1         1 Y2J       0.065200
     25 H12        -22.5800    10.7100    24.9400 ha         1 Y2J       0.179000
     26 H7         -16.2810    16.9880    24.6410 hn         1 Y2J       0.313500
     27 H1         -17.6160    21.1870    24.3510 h1         1 Y2J       0.029367
     28 H          -17.9060    20.7780    26.0520 h1         1 Y2J       0.029367
     29 H2         -16.5090    21.7720    25.6060 h1         1 Y2J       0.029367
     30 H4         -14.9720    20.0570    26.5810 h1         1 Y2J       0.037700
     31 H3         -16.4340    19.1960    27.0710 h1         1 Y2J       0.037700
     32 H14        -19.5950    13.0110    27.4260 h1         1 Y2J       0.065200
     33 H15        -17.9290    12.7640    26.9490 h1         1 Y2J       0.065200
     34 H17        -19.4470    15.4080    26.9020 h1         1 Y2J       0.057700
     35 H16        -18.1700    14.9390    28.0270 h1         1 Y2J       0.057700
     36 H6         -14.3150    18.1420    25.1380 h1         1 Y2J       0.066200
     37 H5         -14.4500    17.7090    26.8290 h1         1 Y2J       0.066200
     38 H13        -24.3920    11.4170    26.8580 ha         1 Y2J       0.176000
     39 C6         -20.2860    12.5460    24.8700 c          1 Y2J       0.618600
@<TRIPOS>BOND
     1     1     2 1   
     2     1    12 1   
     3     1    14 1   
     4     2     3 1   
     5     2    21 1   
     6     2    22 1   
     7     3    16 1   
     8     3    23 1   
     9     3    24 1   
    10     4     5 2   
    11     4    19 1   
    12     4    39 1   
    13     5    15 1   
    14     5    25 1   
    15     6    15 2   
    16     6    19 1   
    17     6    20 1   
    18     7    13 1   
    19     7    14 1   
    20     7    26 1   
    21     8     9 1   
    22     8    27 1   
    23     8    28 1   
    24     8    29 1   
    25     9    10 1   
    26    10    13 1   
    27    10    30 1   
    28    10    31 1   
    29    11    12 1   
    30    11    16 1   
    31    11    32 1   
    32    11    33 1   
    33    12    34 1   
    34    12    35 1   
    35    13    36 1   
    36    13    37 1   
    37    14    17 2   
    38    15    38 1   
    39    16    39 1   
    40    18    39 2   
@<TRIPOS>SUBSTRUCTURE
     1 Y2J         1 TEMP              0 ****  ****    0 ROOT
