@<TRIPOS>MOLECULE
Y2J
   39    40     1     0     0
SMALL
No Charge or Current Charge


@<TRIPOS>ATOM
      1 N1         -17.3370    15.3340    26.2410 n          1 Y2J      -0.425800
      2 C4         -17.6480    15.1390    24.7900 c6         1 Y2J       0.086000
      3 C5         -18.3500    13.8070    24.4210 c6         1 Y2J       0.089500
      4 C7         -21.6500    12.3090    25.7630 cc         1 Y2J       0.062500
      5 C8         -22.6670    11.4220    25.4970 cd         1 Y2J      -0.102000
      6 C10        -23.1770    12.5680    27.3250 cc         1 Y2J       0.219000
      7 N          -15.7310    16.9860    25.7150 ns         1 Y2J      -0.503900
      8 C          -17.1020    20.9790    25.0730 c3         1 Y2J       0.146900
      9 O          -16.3350    19.7650    24.9940 os         1 Y2J      -0.466000
     10 C1         -15.5850    19.4540    26.1850 c3         1 Y2J       0.120600
     11 C11        -18.9690    13.4220    26.7580 c6         1 Y2J       0.089500
     12 C12        -18.3370    14.7650    27.1890 c6         1 Y2J       0.086000
     13 C2         -14.8320    18.1220    25.9590 c3         1 Y2J       0.108000
     14 C3         -16.4670    16.3500    26.6840 c          1 Y2J       0.651100
     15 C9         -23.6410    11.5810    26.5070 cd         1 Y2J      -0.178000
     16 N2         -19.4440    13.4160    25.3470 n          1 Y2J      -0.407800
     17 O1         -16.3640    16.6480    27.8650 o          1 Y2J      -0.644100
     18 O2         -20.3410    11.9710    23.8010 o          1 Y2J      -0.585100
     19 O3         -21.9660    13.0460    26.8920 os         1 Y2J      -0.222000
     20 Cl         -23.8680    13.2750    28.7500 cl         1 Y2J      -0.096000
     21 H8         -18.2950    15.9680    24.4710 h1         1 Y2J       0.057700
     22 H9         -16.7260    15.1980    24.1950 h1         1 Y2J       0.057700
     23 H11        -18.7370    13.8930    23.3950 h1         1 Y2J       0.065200
     24 H10        -17.6000    13.0040    24.4140 h1         1 Y2J       0.065200
     25 H12        -22.7090    10.7320    24.6590 ha         1 Y2J       0.161000
     26 H7         -15.8860    16.6950    24.7600 hn         1 Y2J       0.313500
     27 H1         -17.6430    21.1500    24.1340 h1         1 Y2J       0.029367
     28 H          -17.8370    20.9230    25.8860 h1         1 Y2J       0.029367
     29 H2         -16.4480    21.8420    25.2530 h1         1 Y2J       0.029367
     30 H4         -14.8560    20.2460    26.4010 h1         1 Y2J       0.037700
     31 H3         -16.2520    19.3560    27.0520 h1         1 Y2J       0.037700
     32 H14        -19.7530    13.1580    27.4740 h1         1 Y2J       0.065200
     33 H15        -18.2010    12.6420    26.8560 h1         1 Y2J       0.065200
     34 H17        -19.1430    15.5020    27.3170 h1         1 Y2J       0.057700
     35 H16        -17.8730    14.6230    28.1750 h1         1 Y2J       0.057700
     36 H6         -14.1580    18.2310    25.0990 h1         1 Y2J       0.066200
     37 H5         -14.2140    17.9050    26.8400 h1         1 Y2J       0.066200
     38 H13        -24.5760    11.0410    26.6130 ha         1 Y2J       0.158000
     39 C6         -20.4480    12.5190    24.8930 c          1 Y2J       0.551600
@<TRIPOS>BOND
     1     1     2 1   
     2     1    12 1   
     3     1    14 1   
     4     2     3 1   
     5     2    21 1   
     6     2    22 1   
     7     3    16 1   
     8     3    23 1   
     9     3    24 1   
    10     4     5 2   
    11     4    19 1   
    12     4    39 1   
    13     5    15 1   
    14     5    25 1   
    15     6    15 2   
    16     6    19 1   
    17     6    20 1   
    18     7    13 1   
    19     7    14 1   
    20     7    26 1   
    21     8     9 1   
    22     8    27 1   
    23     8    28 1   
    24     8    29 1   
    25     9    10 1   
    26    10    13 1   
    27    10    30 1   
    28    10    31 1   
    29    11    12 1   
    30    11    16 1   
    31    11    32 1   
    32    11    33 1   
    33    12    34 1   
    34    12    35 1   
    35    13    36 1   
    36    13    37 1   
    37    14    17 2   
    38    15    38 1   
    39    16    39 1   
    40    18    39 2   
@<TRIPOS>SUBSTRUCTURE
     1 Y2J         1 TEMP              0 ****  ****    0 ROOT
