@<TRIPOS>MOLECULE
Y2M
   42    44     1     0     0
SMALL
No Charge or Current Charge


@<TRIPOS>ATOM
      1 N1         -18.2620    16.5340    26.1270 n          1 Y2M      -0.429800
      2 C4         -21.4580    12.3300    25.6480 cc         1 Y2M       0.055500
      3 C5         -20.7410    13.2040    24.6570 c          1 Y2M       0.547600
      4 C6         -19.2760    15.2190    24.1790 c6         1 Y2M       0.084500
      5 C7         -18.0100    15.8330    24.8350 c6         1 Y2M       0.095500
      6 C8         -17.3000    17.3380    26.7640 c          1 Y2M       0.656100
      7 C10        -13.7220    17.9440    25.7680 cx         1 Y2M      -0.149700
      8 C13        -19.6280    16.3610    26.6900 c6         1 Y2M       0.095500
      9 N          -20.0810    14.3820    25.1140 n          1 Y2M      -0.402800
     10 O          -20.7110    12.9140    23.4660 o          1 Y2M      -0.591100
     11 C1         -22.2500    11.4670    27.5320 cc         1 Y2M       0.160300
     12 C11        -13.5570    18.6850    24.4600 cx         1 Y2M      -0.128900
     13 C12        -12.6560    19.0060    25.6300 cx         1 Y2M      -0.128900
     14 C14        -20.1920    14.9270    26.5000 c6         1 Y2M       0.084500
     15 C2         -22.6540    10.6450    26.5180 cd         1 Y2M      -0.202000
     16 C3         -22.1490    11.1900    25.3200 cd         1 Y2M      -0.105000
     17 N2         -16.0720    17.3920    26.1560 ns         1 Y2M      -0.507900
     18 O1         -17.5350    17.9490    27.7950 o          1 Y2M      -0.640100
     19 O2         -21.5100    12.5060    27.0200 os         1 Y2M      -0.234000
     20 H6         -18.9570    14.6290    23.3090 h1         1 Y2M       0.058200
     21 H5         -19.9140    16.0310    23.8010 h1         1 Y2M       0.058200
     22 H7         -17.2850    15.0260    25.0140 h1         1 Y2M       0.059450
     23 H8         -17.5570    16.5320    24.1180 h1         1 Y2M       0.059450
     24 H12        -13.3800    16.9110    25.7930 hc         1 Y2M       0.084700
     25 H18        -19.6330    16.5960    27.7640 h1         1 Y2M       0.059450
     26 H17        -20.3000    17.0790    26.1990 h1         1 Y2M       0.059450
     27 H2         -23.0080    12.2900    29.3650 hc         1 Y2M       0.058033
     28 H1         -23.0860    10.5190    29.2720 hc         1 Y2M       0.058033
     29 H          -21.5290    11.3240    29.5500 hc         1 Y2M       0.058033
     30 H14        -13.1270    18.1430    23.6220 hc         1 Y2M       0.073450
     31 H13        -14.3140    19.4170    24.1880 hc         1 Y2M       0.073450
     32 H16        -11.6200    18.6800    25.5760 hc         1 Y2M       0.073450
     33 H15        -12.8070    19.9550    26.1390 hc         1 Y2M       0.073450
     34 H20        -19.6530    14.2550    27.1820 h1         1 Y2M       0.058200
     35 H19        -21.2480    14.9420    26.8030 h1         1 Y2M       0.058200
     36 H3         -23.2480     9.7430    26.6230 ha         1 Y2M       0.144000
     37 H4         -22.2770    10.7860    24.3190 ha         1 Y2M       0.155000
     38 H10        -15.2170    19.2360    26.6480 h1         1 Y2M       0.053700
     39 H11        -14.7160    17.8710    27.6800 h1         1 Y2M       0.053700
     40 H9         -15.9520    16.8550    25.3090 hn         1 Y2M       0.303500
     41 C          -22.4810    11.3950    29.0110 c3         1 Y2M      -0.128400
     42 C9         -14.9420    18.1730    26.6480 c3         1 Y2M       0.135000
@<TRIPOS>BOND
     1     1     5 1   
     2     1     6 1   
     3     1     8 1   
     4     2     3 1   
     5     2    16 2   
     6     2    19 1   
     7     3     9 1   
     8     3    10 2   
     9     4     5 1   
    10     4     9 1   
    11     4    20 1   
    12     4    21 1   
    13     5    22 1   
    14     5    23 1   
    15     6    17 1   
    16     6    18 2   
    17     7    12 1   
    18     7    13 1   
    19     7    24 1   
    20     7    42 1   
    21     8    14 1   
    22     8    25 1   
    23     8    26 1   
    24     9    14 1   
    25    11    15 2   
    26    11    19 1   
    27    11    41 1   
    28    12    13 1   
    29    12    30 1   
    30    12    31 1   
    31    13    32 1   
    32    13    33 1   
    33    14    34 1   
    34    14    35 1   
    35    15    16 1   
    36    15    36 1   
    37    16    37 1   
    38    17    40 1   
    39    17    42 1   
    40    27    41 1   
    41    28    41 1   
    42    29    41 1   
    43    38    42 1   
    44    39    42 1   
@<TRIPOS>SUBSTRUCTURE
     1 Y2M         1 TEMP              0 ****  ****    0 ROOT
