@<TRIPOS>MOLECULE
Y2M
   42    44     1     0     0
SMALL
abcg2


@<TRIPOS>ATOM
      1 N1         -17.0810    14.7260    26.8660 n          1 Y2M      -0.429800
      2 C4         -21.1470    13.2370    25.3960 cc         1 Y2M       0.055500
      3 C5         -19.8500    13.2890    24.6960 c          1 Y2M       0.547600
      4 C6         -17.4560    13.5920    24.7350 c6         1 Y2M       0.084500
      5 C7         -16.4320    14.0050    25.7950 c6         1 Y2M       0.095500
      6 C8         -16.9620    16.0580    27.1320 c          1 Y2M       0.656100
      7 C10        -15.1580    18.8040    25.4310 cx         1 Y2M      -0.149700
      8 C13        -18.0130    13.9290    27.6450 c6         1 Y2M       0.095500
      9 N          -18.7040    13.2530    25.4070 n          1 Y2M      -0.402800
     10 O          -19.8540    13.3890    23.4740 o          1 Y2M      -0.591100
     11 C1         -22.5940    13.6220    26.9910 cc         1 Y2M       0.160300
     12 C11        -15.6510    19.1160    24.0490 cx         1 Y2M      -0.128900
     13 C12        -15.3130    20.2270    24.9970 cx         1 Y2M      -0.128900
     14 C14        -18.5310    12.7890    26.7700 c6         1 Y2M       0.084500
     15 C2         -23.2910    13.0740    25.9600 cd         1 Y2M      -0.202000
     16 C3         -22.3540    12.8340    24.9210 cd         1 Y2M      -0.105000
     17 N2         -16.2350    16.8050    26.2530 ns         1 Y2M      -0.507900
     18 O1         -17.4610    16.5540    28.1370 o          1 Y2M      -0.640100
     19 O2         -21.2930    13.7220    26.6530 os         1 Y2M      -0.234000
     20 H6         -17.0690    12.7510    24.1510 h1         1 Y2M       0.058200
     21 H5         -17.6390    14.4170    24.0470 h1         1 Y2M       0.058200
     22 H7         -15.9340    13.1260    26.2120 h1         1 Y2M       0.059450
     23 H8         -15.6390    14.5920    25.3380 h1         1 Y2M       0.059450
     24 H12        -14.1410    18.4330    25.5070 hc         1 Y2M       0.084700
     25 H18        -17.5450    13.5150    28.5440 h1         1 Y2M       0.059450
     26 H17        -18.8470    14.5530    27.9630 h1         1 Y2M       0.059450
     27 H2         -22.7830    15.1670    28.4570 hc         1 Y2M       0.058033
     28 H1         -24.0650    13.9560    28.4670 hc         1 Y2M       0.058033
     29 H          -22.4760    13.5660    29.1250 hc         1 Y2M       0.058033
     30 H14        -14.9890    18.9340    23.2130 hc         1 Y2M       0.073450
     31 H13        -16.6980    18.9380    23.8360 hc         1 Y2M       0.073450
     32 H16        -14.4150    20.8030    24.8140 hc         1 Y2M       0.073450
     33 H15        -16.1290    20.8010    25.4180 hc         1 Y2M       0.073450
     34 H20        -17.8240    11.9540    26.7580 h1         1 Y2M       0.058200
     35 H19        -19.4520    12.3870    27.1800 h1         1 Y2M       0.058200
     36 H3         -24.3510    12.8750    25.9470 ha         1 Y2M       0.144000
     37 H4         -22.5480    12.4120    23.9480 ha         1 Y2M       0.155000
     38 H10        -17.0810    18.7420    26.3560 h1         1 Y2M       0.053700
     39 H11        -15.7420    18.4330    27.4520 h1         1 Y2M       0.053700
     40 H9         -16.1600    16.4970    25.2960 hn         1 Y2M       0.303500
     41 C          -22.9960    14.1040    28.3310 c3         1 Y2M      -0.128400
     42 C9         -16.1110    18.2360    26.4440 c3         1 Y2M       0.135000
@<TRIPOS>BOND
     1     1     5 1   
     2     1     6 1   
     3     1     8 1   
     4     2     3 1   
     5     2    16 2   
     6     2    19 1   
     7     3     9 1   
     8     3    10 2   
     9     4     5 1   
    10     4     9 1   
    11     4    20 1   
    12     4    21 1   
    13     5    22 1   
    14     5    23 1   
    15     6    17 1   
    16     6    18 2   
    17     7    12 1   
    18     7    13 1   
    19     7    24 1   
    20     7    42 1   
    21     8    14 1   
    22     8    25 1   
    23     8    26 1   
    24     9    14 1   
    25    11    15 2   
    26    11    19 1   
    27    11    41 1   
    28    12    13 1   
    29    12    30 1   
    30    12    31 1   
    31    13    32 1   
    32    13    33 1   
    33    14    34 1   
    34    14    35 1   
    35    15    16 1   
    36    15    36 1   
    37    16    37 1   
    38    17    40 1   
    39    17    42 1   
    40    27    41 1   
    41    28    41 1   
    42    29    41 1   
    43    38    42 1   
    44    39    42 1   
@<TRIPOS>SUBSTRUCTURE
     1 Y2M         1 TEMP              0 ****  ****    0 ROOT
