@<TRIPOS>MOLECULE
Y2N
   66    69     1     0     0
SMALL
No Charge or Current Charge


@<TRIPOS>ATOM
      1 C1          47.1830    33.5910     1.8950 c3         1 Y2N      -0.045800
      2 C2          48.4460    34.2450     1.3350 ca         1 Y2N      -0.063300
      3 C3          49.6030    33.5000     0.9570 ca         1 Y2N      -0.111600
      4 C4          49.7010    31.9820     1.1170 c          1 Y2N       0.612700
      5 C11         51.9000    27.2960    -3.7290 cc         1 Y2N      -0.162000
      6 C12         52.6130    26.9230    -4.8320 cd         1 Y2N      -0.152000
      7 C16         50.7300    26.5170    -3.7330 cc         1 Y2N       0.256900
      8 C10         52.3540    28.3210    -2.7770 ca         1 Y2N       0.026000
      9 C17         53.5760    29.0080    -2.9520 ca         1 Y2N      -0.092000
     10 C18         53.9970    29.9900    -2.0320 ca         1 Y2N      -0.004000
     11 C19         55.2560    30.7180    -2.2160 cc         1 Y2N      -0.175000
     12 C20         56.3360    30.1520    -2.8600 cd         1 Y2N       0.269900
     13 C22         57.1910    32.1370    -2.3280 cc         1 Y2N       0.404300
     14 C24         53.1780    30.2860    -0.9270 ca         1 Y2N      -0.098000
     15 C26         50.7080    34.2160     0.4210 ca         1 Y2N      -0.130000
     16 C27         50.6800    35.6070     0.2610 ca         1 Y2N       0.136100
     17 C29         51.9160    37.6420    -0.4050 c3         1 Y2N       0.124600
     18 C30         53.2930    37.9930    -1.0420 c3         1 Y2N       0.184800
     19 C34         49.5350    36.3280     0.6410 ca         1 Y2N      -0.180000
     20 C35         48.4310    35.6460     1.1720 ca         1 Y2N      -0.081000
     21 C6          51.0670    29.9590     0.4590 c3         1 Y2N       0.163000
     22 C7          51.7410    29.5840     1.7950 c3         1 Y2N      -0.103100
     23 C8          51.9550    29.6160    -0.7340 ca         1 Y2N      -0.089300
     24 C9          51.5520    28.6380    -1.6620 ca         1 Y2N      -0.087000
     25 N13         51.8260    25.9370    -5.4400 na         1 Y2N       0.134800
     26 N15         50.6470    25.6840    -4.7500 nd         1 Y2N      -0.524800
     27 N21         57.4520    30.9770    -2.9280 nd         1 Y2N      -0.631000
     28 N31         54.5150    37.7950    -0.2000 n3         1 Y2N      -0.741600
     29 N5          50.7190    31.3770     0.4120 ns         1 Y2N      -0.507900
     30 O25         48.9660    31.3220     1.8380 o          1 Y2N      -0.582100
     31 O28         51.8000    36.2120    -0.2700 os         1 Y2N      -0.349100
     32 S23         55.5990    32.3210    -1.6330 ss         1 Y2N      -0.022400
     33 H1B         47.3640    33.1710     2.8920 hc         1 Y2N       0.048700
     34 H1A         46.3590    34.3070     1.9930 hc         1 Y2N       0.048700
     35 H1C         46.8270    32.7870     1.2410 hc         1 Y2N       0.048700
     36 H12         53.5660    27.2440    -5.2340 h4         1 Y2N       0.155000
     37 H14C        52.2040    24.1320    -6.4580 h1         1 Y2N       0.057033
     38 H14B        51.3650    25.3870    -7.4210 h1         1 Y2N       0.057033
     39 H14A        53.1110    25.5480    -7.0680 h1         1 Y2N       0.057033
     40 H16         49.9230    26.5330    -3.0130 h4         1 Y2N       0.038100
     41 H17         54.1960    28.7940    -3.8150 ha         1 Y2N       0.113000
     42 H20         56.3820    29.1590    -3.2900 h4         1 Y2N       0.042100
     43 H22         57.8960    32.9540    -2.2430 h5         1 Y2N       0.052100
     44 H24         53.4940    31.0390    -0.2090 ha         1 Y2N       0.111000
     45 H26         51.6250    33.7080     0.1360 ha         1 Y2N       0.126000
     46 H29B        51.1240    38.0210    -1.0650 h1         1 Y2N       0.037700
     47 H29A        51.8150    38.1390     0.5680 h1         1 Y2N       0.037700
     48 H30B        53.3880    37.4150    -1.9720 h1         1 Y2N       0.060200
     49 H30A        53.2440    39.0460    -1.3490 h1         1 Y2N       0.060200
     50 H32B        55.8310    36.2910     0.5400 h1         1 Y2N       0.029867
     51 H32A        54.1110    35.9560     0.8180 h1         1 Y2N       0.029867
     52 H32C        54.8060    35.7700    -0.8120 h1         1 Y2N       0.029867
     53 H33B        55.5460    38.5900     1.4870 h1         1 Y2N       0.029867
     54 H33C        54.4030    39.7140     0.7240 h1         1 Y2N       0.029867
     55 H33A        53.7980    38.3740     1.7290 h1         1 Y2N       0.029867
     56 H34         49.4820    37.4070     0.5300 ha         1 Y2N       0.118000
     57 H35         47.5510    36.2180     1.4580 ha         1 Y2N       0.114000
     58 H6          50.1340    29.3820     0.3780 h1         1 Y2N       0.077700
     59 H7C         52.0150    28.5220     1.7970 hc         1 Y2N       0.045700
     60 H7B         52.6510    30.1730     1.9560 hc         1 Y2N       0.045700
     61 H7A         51.0650    29.7590     2.6390 hc         1 Y2N       0.045700
     62 H9          50.6070    28.1240    -1.5120 ha         1 Y2N       0.117000
     63 H5          51.2590    31.9720    -0.2000 hn         1 Y2N       0.318500
     64 C14         52.1470    25.2060    -6.6740 c3         1 Y2N       0.072900
     65 C32         54.8280    36.3780     0.1020 c3         1 Y2N       0.168600
     66 C33         54.5650    38.6630     0.9980 c3         1 Y2N       0.168600
@<TRIPOS>BOND
     1     1     2 1   
     2     1    33 1   
     3     1    34 1   
     4     1    35 1   
     5     2     3 ar  
     6     2    20 ar  
     7     3     4 1   
     8     3    15 ar  
     9     4    29 1   
    10     4    30 2   
    11     5     6 2   
    12     5     7 1   
    13     5     8 1   
    14     6    25 1   
    15     6    36 1   
    16     7    26 2   
    17     7    40 1   
    18     8     9 ar  
    19     8    24 ar  
    20     9    10 ar  
    21     9    41 1   
    22    10    11 1   
    23    10    14 ar  
    24    11    12 2   
    25    11    32 1   
    26    12    27 1   
    27    12    42 1   
    28    13    27 2   
    29    13    32 1   
    30    13    43 1   
    31    14    23 ar  
    32    14    44 1   
    33    15    16 ar  
    34    15    45 1   
    35    16    19 ar  
    36    16    31 1   
    37    17    18 1   
    38    17    31 1   
    39    17    46 1   
    40    17    47 1   
    41    18    28 1   
    42    18    48 1   
    43    18    49 1   
    44    19    20 ar  
    45    19    56 1   
    46    20    57 1   
    47    21    22 1   
    48    21    23 1   
    49    21    29 1   
    50    21    58 1   
    51    22    59 1   
    52    22    60 1   
    53    22    61 1   
    54    23    24 ar  
    55    24    62 1   
    56    25    26 1   
    57    25    64 1   
    58    28    65 1   
    59    28    66 1   
    60    29    63 1   
    61    37    64 1   
    62    38    64 1   
    63    39    64 1   
    64    50    65 1   
    65    51    65 1   
    66    52    65 1   
    67    53    66 1   
    68    54    66 1   
    69    55    66 1   
@<TRIPOS>SUBSTRUCTURE
     1 Y2N         1 TEMP              0 ****  ****    0 ROOT
