@<TRIPOS>MOLECULE
Y2N
   66    69     1     0     0
SMALL
abcg2


@<TRIPOS>ATOM
      1 C1          47.2820    33.5470     0.8740 c3         1 Y2N      -0.045800
      2 C2          48.5880    34.2420     0.6170 ca         1 Y2N      -0.063300
      3 C3          49.7580    33.5450     0.2850 ca         1 Y2N      -0.111600
      4 C4          49.7490    32.0600     0.0820 c          1 Y2N       0.612700
      5 C11         52.0410    27.0740    -3.2800 cc         1 Y2N      -0.162000
      6 C12         52.4510    26.7650    -4.5650 cd         1 Y2N      -0.152000
      7 C16         51.3750    25.9030    -2.8610 cc         1 Y2N       0.256900
      8 C10         52.2580    28.3080    -2.5290 ca         1 Y2N       0.026000
      9 C17         53.1950    29.2500    -2.9500 ca         1 Y2N      -0.092000
     10 C18         53.4060    30.4230    -2.2300 ca         1 Y2N      -0.004000
     11 C19         54.3900    31.4010    -2.6920 cc         1 Y2N      -0.175000
     12 C20         55.5500    31.1970    -3.3840 cd         1 Y2N       0.269900
     13 C22         55.6830    33.3760    -3.2470 cc         1 Y2N       0.404300
     14 C24         52.6700    30.6510    -1.0680 ca         1 Y2N      -0.098000
     15 C26         50.9480    34.2180     0.0570 ca         1 Y2N      -0.130000
     16 C27         51.0140    35.6080     0.1330 ca         1 Y2N       0.136100
     17 C29         52.3620    37.5640    -0.0690 c3         1 Y2N       0.124600
     18 C30         53.7640    37.9420    -0.5240 c3         1 Y2N       0.184800
     19 C34         49.8690    36.3150     0.4800 ca         1 Y2N      -0.180000
     20 C35         48.6850    35.6230     0.7210 ca         1 Y2N      -0.081000
     21 C6          50.9180    29.9740     0.6220 c3         1 Y2N       0.163000
     22 C7          51.6580    29.4190     1.8340 c3         1 Y2N      -0.103100
     23 C8          51.7130    29.7400    -0.6480 ca         1 Y2N      -0.089300
     24 C9          51.5130    28.5780    -1.3800 ca         1 Y2N      -0.087000
     25 N13         52.0350    25.5170    -4.8230 na         1 Y2N       0.134800
     26 N15         51.3830    24.9770    -3.7980 nd         1 Y2N      -0.524800
     27 N21         56.2700    32.3120    -3.6900 nd         1 Y2N      -0.631000
     28 N31         54.8900    37.5650     0.2990 n3         1 Y2N      -0.741600
     29 N5          50.6370    31.3800     0.8300 ns         1 Y2N      -0.507900
     30 O25         49.0050    31.5240    -0.7240 o          1 Y2N      -0.582100
     31 O28         52.2100    36.1570    -0.1470 os         1 Y2N      -0.349100
     32 S23         54.2040    33.0960    -2.4250 ss         1 Y2N      -0.022400
     33 H1B         47.3970    32.6990     1.5510 hc         1 Y2N       0.048700
     34 H1A         46.5660    34.2330     1.3260 hc         1 Y2N       0.048700
     35 H1C         46.8380    33.1660    -0.0460 hc         1 Y2N       0.048700
     36 H12         52.9900    27.3410    -5.3000 h4         1 Y2N       0.155000
     37 H14C        52.8300    23.8710    -5.8320 h1         1 Y2N       0.057033
     38 H14B        51.2740    24.4560    -6.4510 h1         1 Y2N       0.057033
     39 H14A        52.7540    25.3770    -6.7590 h1         1 Y2N       0.057033
     40 H16         50.9060    25.7040    -1.9080 h4         1 Y2N       0.038100
     41 H17         53.7610    29.0760    -3.8580 ha         1 Y2N       0.113000
     42 H20         55.9210    30.2240    -3.6750 h4         1 Y2N       0.042100
     43 H22         56.0680    34.3800    -3.3680 h5         1 Y2N       0.052100
     44 H24         52.8550    31.5440    -0.4830 ha         1 Y2N       0.111000
     45 H26         51.8450    33.6730    -0.2100 ha         1 Y2N       0.126000
     46 H29B        51.6420    38.0640    -0.7280 h1         1 Y2N       0.037700
     47 H29A        52.1670    37.9140     0.9510 h1         1 Y2N       0.037700
     48 H30B        53.9240    37.5480    -1.5330 h1         1 Y2N       0.060200
     49 H30A        53.7640    39.0330    -0.6190 h1         1 Y2N       0.060200
     50 H32B        56.2590    36.0440     0.6780 h1         1 Y2N       0.029867
     51 H32A        54.5870    35.5200     0.8830 h1         1 Y2N       0.029867
     52 H32C        55.2430    35.7870    -0.7370 h1         1 Y2N       0.029867
     53 H33B        55.8370    37.9840     2.1060 h1         1 Y2N       0.029867
     54 H33C        54.6630    39.1910     1.5880 h1         1 Y2N       0.029867
     55 H33A        54.1130    37.6650     2.2940 h1         1 Y2N       0.029867
     56 H34         49.8710    37.3930     0.5690 ha         1 Y2N       0.118000
     57 H35         47.8050    36.1910     0.9980 ha         1 Y2N       0.114000
     58 H6          49.9660    29.4450     0.5300 h1         1 Y2N       0.077700
     59 H7C         51.8540    28.3570     1.6970 hc         1 Y2N       0.045700
     60 H7B         52.6160    29.9220     1.9760 hc         1 Y2N       0.045700
     61 H7A         51.0640    29.5410     2.7400 hc         1 Y2N       0.045700
     62 H9          50.7510    27.8810    -1.0520 ha         1 Y2N       0.117000
     63 H5          51.2060    31.8880     1.4900 hn         1 Y2N       0.318500
     64 C14         52.2320    24.7580    -6.0340 c3         1 Y2N       0.072900
     65 C32         55.2460    36.1640     0.2870 c3         1 Y2N       0.168600
     66 C33         54.8640    38.1190     1.6310 c3         1 Y2N       0.168600
@<TRIPOS>BOND
     1     1     2 1   
     2     1    33 1   
     3     1    34 1   
     4     1    35 1   
     5     2     3 ar  
     6     2    20 ar  
     7     3     4 1   
     8     3    15 ar  
     9     4    29 1   
    10     4    30 2   
    11     5     6 2   
    12     5     7 1   
    13     5     8 1   
    14     6    25 1   
    15     6    36 1   
    16     7    26 2   
    17     7    40 1   
    18     8     9 ar  
    19     8    24 ar  
    20     9    10 ar  
    21     9    41 1   
    22    10    11 1   
    23    10    14 ar  
    24    11    12 2   
    25    11    32 1   
    26    12    27 1   
    27    12    42 1   
    28    13    27 2   
    29    13    32 1   
    30    13    43 1   
    31    14    23 ar  
    32    14    44 1   
    33    15    16 ar  
    34    15    45 1   
    35    16    19 ar  
    36    16    31 1   
    37    17    18 1   
    38    17    31 1   
    39    17    46 1   
    40    17    47 1   
    41    18    28 1   
    42    18    48 1   
    43    18    49 1   
    44    19    20 ar  
    45    19    56 1   
    46    20    57 1   
    47    21    22 1   
    48    21    23 1   
    49    21    29 1   
    50    21    58 1   
    51    22    59 1   
    52    22    60 1   
    53    22    61 1   
    54    23    24 ar  
    55    24    62 1   
    56    25    26 1   
    57    25    64 1   
    58    28    65 1   
    59    28    66 1   
    60    29    63 1   
    61    37    64 1   
    62    38    64 1   
    63    39    64 1   
    64    50    65 1   
    65    51    65 1   
    66    52    65 1   
    67    53    66 1   
    68    54    66 1   
    69    55    66 1   
@<TRIPOS>SUBSTRUCTURE
     1 Y2N         1 TEMP              0 ****  ****    0 ROOT
