@<TRIPOS>MOLECULE
Y2P
   71    75     1     0     0
SMALL
No Charge or Current Charge


@<TRIPOS>ATOM
      1 N1          19.4020    17.2820    18.8210 n          1 Y2P      -0.376400
      2 N3          18.7120     9.6000    12.9770 na         1 Y2P       0.142800
      3 C4          22.1040    20.1900    20.9940 ca         1 Y2P      -0.136300
      4 C5          22.1450    21.2240    20.0350 ca         1 Y2P      -0.078000
      5 C6          21.3290    22.3590    20.1810 ca         1 Y2P      -0.146000
      6 C7          20.4730    22.4670    21.2870 ca         1 Y2P       0.175000
      7 C8          20.4270    21.4470    22.2480 ca         1 Y2P      -0.146000
      8 C10         21.9020    17.8130    18.8420 c          1 Y2P       0.592100
      9 C13         17.9960    15.6120    18.0550 c5         1 Y2P       0.089700
     10 C15         15.9400    14.1750    17.8810 c5         1 Y2P       0.242600
     11 C17         18.1880    14.4830    17.0810 ca         1 Y2P      -0.108300
     12 C20         18.1640    12.2710    15.3440 ca         1 Y2P       0.034000
     13 C21         17.0300    12.5830    16.1290 ca         1 Y2P      -0.078000
     14 C22         18.1260    11.1100    14.4440 cc         1 Y2P      -0.166000
     15 C24         19.1720    10.7390    13.6490 cd         1 Y2P      -0.128000
     16 C26         20.5270     7.9020    12.5680 c          1 Y2P       0.581100
     17 C28         18.5410    17.8830    17.9340 c          1 Y2P       0.625000
     18 N           23.0500    18.3820    19.4640 n          1 Y2P      -0.410800
     19 C           25.2390    19.4710    18.7580 c3         1 Y2P      -0.105100
     20 O           22.0070    17.1900    17.7910 o          1 Y2P      -0.581100
     21 C1          24.4130    18.1620    18.8680 c3         1 Y2P       0.048700
     22 C11         20.5090    18.0160    19.4920 c3         1 Y2P       0.034000
     23 C12         19.2000    15.9260    19.0040 c          1 Y2P       0.576000
     24 C14         16.7010    15.1670    18.8440 c5         1 Y2P      -0.105400
     25 C16         17.0630    13.6910    16.9910 ca         1 Y2P      -0.112300
     26 C18         19.3270    14.2080    16.3120 ca         1 Y2P      -0.065000
     27 C19         19.3120    13.0980    15.4450 ca         1 Y2P      -0.103000
     28 C2          25.2110    17.0020    19.5430 c3         1 Y2P       0.279000
     29 C23         17.0970    10.1830    14.2040 cc         1 Y2P       0.266900
     30 C27         22.1780     6.0940    11.9910 c3         1 Y2P       0.095300
     31 C3          22.9730    18.9430    20.8430 c3         1 Y2P       0.149300
     32 C9          21.2420    20.3100    22.1040 ca         1 Y2P      -0.078000
     33 F           26.2970    16.6720    18.8080 f          1 Y2P      -0.113000
     34 F1          24.4460    15.8920    19.6610 f          1 Y2P      -0.113000
     35 F2          25.6410    17.3380    20.7810 f          1 Y2P      -0.113000
     36 F3          19.6890    23.5580    21.4260 f          1 Y2P      -0.176000
     37 F4          14.9720    14.8590    17.1430 f          1 Y2P      -0.263000
     38 N2          17.4100     9.2580    13.3190 nd         1 Y2P      -0.519800
     39 N4          21.1260     7.0580    11.6560 ns         1 Y2P      -0.508900
     40 N5          17.6890    16.9280    17.4710 ns         1 Y2P      -0.501900
     41 O1          19.8530    15.1920    19.7350 o          1 Y2P      -0.486000
     42 O2          20.8480     7.8990    13.7490 o          1 Y2P      -0.571100
     43 O3          18.5340    19.0550    17.6050 o          1 Y2P      -0.547000
     44 H1          22.8020    21.1490    19.1720 ha         1 Y2P       0.123000
     45 H2          21.3590    23.1540    19.4400 ha         1 Y2P       0.136500
     46 H3          19.7610    21.5380    23.1030 ha         1 Y2P       0.136500
     47 H4          15.4490    13.3560    18.4240 h1         1 Y2P       0.073700
     48 H5          16.1300    11.9780    16.0720 ha         1 Y2P       0.122000
     49 H6          20.1620    11.1510    13.5000 h4         1 Y2P       0.157000
     50 H7          26.1860    19.2880    18.2370 hc         1 Y2P       0.058700
     51 H8          24.6900    20.2230    18.1810 hc         1 Y2P       0.058700
     52 H9          25.4750    19.8940    19.7410 hc         1 Y2P       0.058700
     53 H10         24.2790    17.8400    17.8270 h1         1 Y2P       0.111700
     54 H11         20.2920    19.0900    19.4840 h1         1 Y2P       0.093200
     55 H12         20.5690    17.6920    20.5370 h1         1 Y2P       0.093200
     56 H13         16.0740    16.0040    19.1730 hc         1 Y2P       0.080700
     57 H14         16.9860    14.6250    19.7520 hc         1 Y2P       0.080700
     58 H15         20.2100    14.8410    16.3800 ha         1 Y2P       0.143000
     59 H16         20.2000    12.8920    14.8560 ha         1 Y2P       0.118000
     60 H17         16.1140    10.1580    14.6530 h4         1 Y2P       0.040100
     61 H18         19.9440     9.5110    11.2780 h1         1 Y2P       0.080200
     62 H19         18.7510     8.2030    11.4050 h1         1 Y2P       0.080200
     63 H20         22.4800     5.5490    11.0880 h1         1 Y2P       0.043700
     64 H21         23.0480     6.6230    12.4020 h1         1 Y2P       0.043700
     65 H22         21.8020     5.3790    12.7350 h1         1 Y2P       0.043700
     66 H23         22.6010    18.1550    21.5110 h1         1 Y2P       0.065700
     67 H24         23.9770    19.1940    21.2030 h1         1 Y2P       0.065700
     68 H25         21.2000    19.5230    22.8550 ha         1 Y2P       0.123000
     69 H26         20.8120     7.1160    10.6930 hn         1 Y2P       0.315500
     70 H27         16.9880    17.1560    16.7760 hn         1 Y2P       0.359500
     71 C25         19.4540     8.8220    11.9740 c3         1 Y2P      -0.004400
@<TRIPOS>BOND
     1     1    17 1   
     2     1    22 1   
     3     1    23 1   
     4     2    15 1   
     5     2    38 1   
     6     2    71 1   
     7     3     4 ar  
     8     3    31 1   
     9     3    32 ar  
    10     4     5 ar  
    11     4    44 1   
    12     5     6 ar  
    13     5    45 1   
    14     6     7 ar  
    15     6    36 1   
    16     7    32 ar  
    17     7    46 1   
    18     8    18 1   
    19     8    20 2   
    20     8    22 1   
    21     9    11 1   
    22     9    23 1   
    23     9    24 1   
    24     9    40 1   
    25    10    24 1   
    26    10    25 1   
    27    10    37 1   
    28    10    47 1   
    29    11    25 ar  
    30    11    26 ar  
    31    12    13 ar  
    32    12    14 1   
    33    12    27 ar  
    34    13    25 ar  
    35    13    48 1   
    36    14    15 2   
    37    14    29 1   
    38    15    49 1   
    39    16    39 1   
    40    16    42 2   
    41    16    71 1   
    42    17    40 1   
    43    17    43 2   
    44    18    21 1   
    45    18    31 1   
    46    19    21 1   
    47    19    50 1   
    48    19    51 1   
    49    19    52 1   
    50    21    28 1   
    51    21    53 1   
    52    22    54 1   
    53    22    55 1   
    54    23    41 2   
    55    24    56 1   
    56    24    57 1   
    57    26    27 ar  
    58    26    58 1   
    59    27    59 1   
    60    28    33 1   
    61    28    34 1   
    62    28    35 1   
    63    29    38 2   
    64    29    60 1   
    65    30    39 1   
    66    30    63 1   
    67    30    64 1   
    68    30    65 1   
    69    31    66 1   
    70    31    67 1   
    71    32    68 1   
    72    39    69 1   
    73    40    70 1   
    74    61    71 1   
    75    62    71 1   
@<TRIPOS>SUBSTRUCTURE
     1 Y2P         1 TEMP              0 ****  ****    0 ROOT
