@<TRIPOS>MOLECULE
Y2P
   71    75     1     0     0
SMALL
bcc


@<TRIPOS>ATOM
      1 N1          19.0430    17.0270    19.2980 n          1 Y2P      -0.510400
      2 N3          19.0550     9.9320    12.9570 na         1 Y2P       0.121400
      3 C4          22.2300    20.2680    20.6150 ca         1 Y2P      -0.136300
      4 C5          21.7390    20.7620    19.4140 ca         1 Y2P      -0.096000
      5 C6          21.4460    22.1120    19.2610 ca         1 Y2P      -0.164000
      6 C7          21.6480    22.9600    20.3300 ca         1 Y2P       0.139900
      7 C8          22.1290    22.5030    21.5440 ca         1 Y2P      -0.164000
      8 C10         21.4300    17.4080    19.1670 c          1 Y2P       0.659100
      9 C13         17.5980    15.4710    18.3650 c5         1 Y2P       0.089700
     10 C15         15.7410    13.9060    17.9870 c5         1 Y2P       0.223900
     11 C17         17.9840    14.3900    17.3830 ca         1 Y2P      -0.108300
     12 C20         18.2400    12.2950    15.5680 ca         1 Y2P       0.034000
     13 C21         17.0500    12.4640    16.2770 ca         1 Y2P      -0.096000
     14 C22         18.3920    11.2000    14.6130 cc         1 Y2P      -0.231300
     15 C24         19.2950    11.0990    13.5730 cd         1 Y2P      -0.095300
     16 C26         20.9470     8.4820    12.4100 c          1 Y2P       0.648100
     17 C28         18.3790    17.6650    18.2420 c          1 Y2P       0.834500
     18 N           22.5630    17.9760    19.6560 n          1 Y2P      -0.477800
     19 C           24.7330    18.9630    18.9050 c3         1 Y2P      -0.105100
     20 O           21.4000    16.7550    18.1420 o          1 Y2P      -0.581100
     21 C1          23.8120    17.7500    18.9390 c3         1 Y2P       0.048700
     22 C11         20.1520    17.6150    19.9800 c3         1 Y2P       0.034000
     23 C12         18.6800    15.7200    19.4090 c          1 Y2P       0.718500
     24 C14         16.2970    14.9150    18.9840 c5         1 Y2P      -0.105400
     25 C16         16.9390    13.5060    17.1820 ca         1 Y2P      -0.112300
     26 C18         19.1710    14.2480    16.6810 ca         1 Y2P      -0.083000
     27 C19         19.2910    13.1960    15.7900 ca         1 Y2P      -0.121000
     28 C2          24.5130    16.5220    19.5120 c3         1 Y2P       0.642900
     29 C23         17.6550     9.9990    14.5270 cc         1 Y2P       0.332200
     30 C27         22.6020     6.8060    11.7800 c3         1 Y2P       0.095300
     31 C3          22.5530    18.8080    20.8460 c3         1 Y2P       0.149300
     32 C9          22.4160    21.1540    21.6740 ca         1 Y2P      -0.096000
     33 F           25.5860    16.1970    18.7800 f          1 Y2P      -0.234300
     34 F1          23.7130    15.4520    19.5360 f          1 Y2P      -0.234300
     35 F2          24.9400    16.7070    20.7710 f          1 Y2P      -0.234300
     36 F3          21.3750    24.2670    20.1880 f          1 Y2P      -0.140900
     37 F4          14.8060    14.5060    17.1360 f          1 Y2P      -0.244300
     38 N2          18.0720     9.2430    13.5330 nd         1 Y2P      -0.519800
     39 N4          21.4590     7.6460    11.5020 ns         1 Y2P      -0.575900
     40 N5          17.4940    16.7750    17.7550 ns         1 Y2P      -0.568900
     41 O1          19.1290    14.9130    20.1830 o          1 Y2P      -0.561500
     42 O2          21.3590     8.5820    13.5520 o          1 Y2P      -0.571100
     43 O3          18.5900    18.8030    17.8920 o          1 Y2P      -0.622500
     44 H1          21.5870    20.1090    18.5640 ha         1 Y2P       0.141000
     45 H2          21.0700    22.4930    18.3210 ha         1 Y2P       0.154500
     46 H3          22.2820    23.1860    22.3690 ha         1 Y2P       0.154500
     47 H4          15.2360    13.0720    18.4750 h1         1 Y2P       0.073700
     48 H5          16.2160    11.7910    16.1150 ha         1 Y2P       0.140000
     49 H6          20.0590    11.7750    13.2220 h4         1 Y2P       0.175000
     50 H7          25.6020    18.7500    18.2860 hc         1 Y2P       0.058700
     51 H8          24.2100    19.8030    18.4540 hc         1 Y2P       0.058700
     52 H9          25.0880    19.2690    19.8880 hc         1 Y2P       0.058700
     53 H10         23.5540    17.4990    17.9090 h1         1 Y2P       0.111700
     54 H11         19.9500    18.6720    20.1550 h1         1 Y2P       0.093200
     55 H12         20.2480    17.1410    20.9590 h1         1 Y2P       0.093200
     56 H13         15.5880    15.7020    19.2390 hc         1 Y2P       0.080700
     57 H14         16.5440    14.3810    19.9030 hc         1 Y2P       0.080700
     58 H15         19.9980    14.9310    16.8300 ha         1 Y2P       0.161000
     59 H16         20.2280    13.0650    15.2630 ha         1 Y2P       0.136000
     60 H17         16.8460     9.6650    15.1600 h4         1 Y2P       0.040100
     61 H18         20.2300    10.1570    11.2770 h1         1 Y2P       0.080200
     62 H19         19.1320     8.7850    11.2440 h1         1 Y2P       0.080200
     63 H20         22.8410     6.2430    10.8830 h1         1 Y2P       0.043700
     64 H21         23.4760     7.3960    12.0580 h1         1 Y2P       0.043700
     65 H22         22.3950     6.0980    12.5830 h1         1 Y2P       0.043700
     66 H23         21.8540    18.3940    21.5740 h1         1 Y2P       0.065700
     67 H24         23.5210    18.7340    21.3400 h1         1 Y2P       0.065700
     68 H25         22.8000    20.7890    22.6200 ha         1 Y2P       0.141000
     69 H26         21.0580     7.6120    10.5790 hn         1 Y2P       0.315500
     70 H27         16.9340    16.9630    16.9380 hn         1 Y2P       0.359500
     71 C25         19.8080     9.3530    11.8840 c3         1 Y2P      -0.033700
@<TRIPOS>BOND
     1     1    17 1   
     2     1    22 1   
     3     1    23 1   
     4     2    15 1   
     5     2    38 1   
     6     2    71 1   
     7     3     4 ar  
     8     3    31 1   
     9     3    32 ar  
    10     4     5 ar  
    11     4    44 1   
    12     5     6 ar  
    13     5    45 1   
    14     6     7 ar  
    15     6    36 1   
    16     7    32 ar  
    17     7    46 1   
    18     8    18 1   
    19     8    20 2   
    20     8    22 1   
    21     9    11 1   
    22     9    23 1   
    23     9    24 1   
    24     9    40 1   
    25    10    24 1   
    26    10    25 1   
    27    10    37 1   
    28    10    47 1   
    29    11    25 ar  
    30    11    26 ar  
    31    12    13 ar  
    32    12    14 1   
    33    12    27 ar  
    34    13    25 ar  
    35    13    48 1   
    36    14    15 2   
    37    14    29 1   
    38    15    49 1   
    39    16    39 1   
    40    16    42 2   
    41    16    71 1   
    42    17    40 1   
    43    17    43 2   
    44    18    21 1   
    45    18    31 1   
    46    19    21 1   
    47    19    50 1   
    48    19    51 1   
    49    19    52 1   
    50    21    28 1   
    51    21    53 1   
    52    22    54 1   
    53    22    55 1   
    54    23    41 2   
    55    24    56 1   
    56    24    57 1   
    57    26    27 ar  
    58    26    58 1   
    59    27    59 1   
    60    28    33 1   
    61    28    34 1   
    62    28    35 1   
    63    29    38 2   
    64    29    60 1   
    65    30    39 1   
    66    30    63 1   
    67    30    64 1   
    68    30    65 1   
    69    31    66 1   
    70    31    67 1   
    71    32    68 1   
    72    39    69 1   
    73    40    70 1   
    74    61    71 1   
    75    62    71 1   
@<TRIPOS>SUBSTRUCTURE
     1 Y2P         1 TEMP              0 ****  ****    0 ROOT
