@<TRIPOS>MOLECULE
Y2R
   69    72     1     0     0
SMALL
abcg2


@<TRIPOS>ATOM
      1 C1          46.6870    33.1820     0.0220 c3         1 Y2R      -0.044800
      2 C2          48.0710    33.7670    -0.0220 ca         1 Y2R      -0.064300
      3 C3          48.2550    35.1490    -0.0270 ca         1 Y2R      -0.083000
      4 C4          49.5110    35.7270    -0.0800 ca         1 Y2R      -0.129000
      5 C5          50.6480    34.9220    -0.1200 ca         1 Y2R       0.138100
      6 C7          53.0220    34.7710    -0.2250 c3         1 Y2R       0.122600
      7 C8          54.2310    35.6910    -0.3260 c3         1 Y2R       0.183800
      8 C10         54.8930    35.7460     2.0050 c3         1 Y2R       0.166600
      9 C11         53.7150    37.6270     1.0890 c3         1 Y2R       0.166600
     10 C12         50.4930    33.5410    -0.0890 ca         1 Y2R      -0.182000
     11 C13         49.2180    32.9760    -0.0480 ca         1 Y2R      -0.111600
     12 C14         49.1300    31.4820    -0.1030 c          1 Y2R       0.611700
     13 C17         49.9550    29.4130     0.9230 c3         1 Y2R       0.162000
     14 C18         50.3300    28.9710     2.3320 c3         1 Y2R      -0.103100
     15 C19         51.0220    29.0010    -0.0720 ca         1 Y2R      -0.093300
     16 C20         50.8690    27.8400    -0.8160 ca         1 Y2R      -0.085000
     17 C21         51.8600    27.4310    -1.7080 ca         1 Y2R       0.002000
     18 C22         51.7080    26.2170    -2.5100 cc         1 Y2R      -0.160000
     19 C23         52.2140    25.9540    -3.7540 cd         1 Y2R      -0.123000
     20 C24         51.8640    24.6670    -4.2380 cd         1 Y2R      -0.130000
     21 C25         51.0980    23.9670    -3.3570 cc         1 Y2R      -0.242000
     22 C27         53.0080    28.2080    -1.8460 ca         1 Y2R      -0.090000
     23 C28         53.1720    29.3880    -1.1210 ca         1 Y2R       0.000000
     24 C29         54.3640    30.2220    -1.2770 cc         1 Y2R      -0.171000
     25 C30         54.7840    31.2590    -0.4880 cd         1 Y2R      -0.137000
     26 C31         55.9910    31.8520    -0.9380 cd         1 Y2R      -0.144000
     27 C32         56.4820    31.2720    -2.0690 cc         1 Y2R      -0.216300
     28 C33         57.6780    31.6400    -2.8850 c3         1 Y2R       0.223100
     29 C36         52.1670    29.7670    -0.2310 ca         1 Y2R      -0.089000
     30 N16         49.7410    30.8460     0.9120 ns         1 Y2R      -0.507900
     31 N34         58.2220    30.4730    -3.5540 n8         1 Y2R      -1.008200
     32 N9          54.5830    36.5020     0.8170 n3         1 Y2R      -0.741600
     33 O15         48.5650    30.9000    -1.0160 o          1 Y2R      -0.582100
     34 O6          51.8370    35.5490    -0.1890 os         1 Y2R      -0.346100
     35 S26         50.8000    24.8660    -1.9310 ss         1 Y2R       0.202000
     36 S35         55.4710    29.9790    -2.5850 ss         1 Y2R       0.275000
     37 H1B         46.3940    32.7700    -0.9440 hc         1 Y2R       0.047700
     38 H1C         46.6040    32.3770     0.7530 hc         1 Y2R       0.047700
     39 H1A         45.9580    33.9450     0.2900 hc         1 Y2R       0.047700
     40 H3          47.3860    35.7960     0.0130 ha         1 Y2R       0.116000
     41 H4          49.6160    36.8040    -0.0910 ha         1 Y2R       0.128000
     42 H7A         53.0900    34.1320     0.6630 h1         1 Y2R       0.038200
     43 H7B         53.0200    34.1100    -1.1000 h1         1 Y2R       0.038200
     44 H8A         55.0820    35.0390    -0.5520 h1         1 Y2R       0.061200
     45 H8B         54.1060    36.3450    -1.1940 h1         1 Y2R       0.061200
     46 H10B        55.3600    36.3980     2.7460 h1         1 Y2R       0.030200
     47 H10A        54.0190    35.2830     2.4880 h1         1 Y2R       0.030200
     48 H10C        55.6030    34.9510     1.7720 h1         1 Y2R       0.030200
     49 H11B        54.2270    38.3260     1.7550 h1         1 Y2R       0.030200
     50 H11C        53.4900    38.1580     0.1640 h1         1 Y2R       0.030200
     51 H11A        52.7630    37.3620     1.5650 h1         1 Y2R       0.030200
     52 H12         51.3550    32.8870    -0.1200 ha         1 Y2R       0.119000
     53 H17         49.0170    28.9260     0.6430 h1         1 Y2R       0.078700
     54 H18C        50.4870    27.8930     2.3590 hc         1 Y2R       0.045033
     55 H18B        51.2520    29.4530     2.6600 hc         1 Y2R       0.045033
     56 H18A        49.5380    29.2180     3.0390 hc         1 Y2R       0.045033
     57 H20         49.9550    27.2650    -0.7170 ha         1 Y2R       0.121000
     58 H23         52.8010    26.6670    -4.3170 ha         1 Y2R       0.136000
     59 H24         52.1640    24.2840    -5.2030 ha         1 Y2R       0.134000
     60 H25         50.6940    22.9720    -3.4680 h4         1 Y2R       0.150000
     61 H27         53.7900    27.8710    -2.5160 ha         1 Y2R       0.120000
     62 H30         54.2640    31.5850     0.4020 ha         1 Y2R       0.125000
     63 H31         56.4750    32.6800    -0.4380 ha         1 Y2R       0.129000
     64 H33B        57.3750    32.3530    -3.6560 h1         1 Y2R       0.042700
     65 H33A        58.3850    32.1730    -2.2370 h1         1 Y2R       0.042700
     66 H36         52.2710    30.6830     0.3380 ha         1 Y2R       0.107000
     67 H16         50.1820    31.3980     1.6320 hn         1 Y2R       0.316500
     68 H34B        58.9040    30.7610    -4.2420 hn         1 Y2R       0.403500
     69 H34C        58.7160    29.8910    -2.8880 hn         1 Y2R       0.403500
@<TRIPOS>BOND
     1     1     2 1   
     2     1    37 1   
     3     1    38 1   
     4     1    39 1   
     5     2     3 ar  
     6     2    11 ar  
     7     3     4 ar  
     8     3    40 1   
     9     4     5 ar  
    10     4    41 1   
    11     5    10 ar  
    12     5    34 1   
    13     6     7 1   
    14     6    34 1   
    15     6    42 1   
    16     6    43 1   
    17     7    32 1   
    18     7    44 1   
    19     7    45 1   
    20     8    32 1   
    21     8    46 1   
    22     8    47 1   
    23     8    48 1   
    24     9    32 1   
    25     9    49 1   
    26     9    50 1   
    27     9    51 1   
    28    10    11 ar  
    29    10    52 1   
    30    11    12 1   
    31    12    30 1   
    32    12    33 2   
    33    13    14 1   
    34    13    15 1   
    35    13    30 1   
    36    13    53 1   
    37    14    54 1   
    38    14    55 1   
    39    14    56 1   
    40    15    16 ar  
    41    15    29 ar  
    42    16    17 ar  
    43    16    57 1   
    44    17    18 1   
    45    17    22 ar  
    46    18    19 2   
    47    18    35 1   
    48    19    20 1   
    49    19    58 1   
    50    20    21 2   
    51    20    59 1   
    52    21    35 1   
    53    21    60 1   
    54    22    23 ar  
    55    22    61 1   
    56    23    24 1   
    57    23    29 ar  
    58    24    25 2   
    59    24    36 1   
    60    25    26 1   
    61    25    62 1   
    62    26    27 2   
    63    26    63 1   
    64    27    28 1   
    65    27    36 1   
    66    28    31 1   
    67    28    64 1   
    68    28    65 1   
    69    29    66 1   
    70    30    67 1   
    71    31    68 1   
    72    31    69 1   
@<TRIPOS>SUBSTRUCTURE
     1 Y2R         1 TEMP              0 ****  ****    0 ROOT
