@<TRIPOS>MOLECULE
Y2R
   69    72     1     0     0
SMALL
No Charge or Current Charge


@<TRIPOS>ATOM
      1 C1          46.4280    33.4880     0.7070 c3         1 Y2R      -0.044800
      2 C2          47.8570    33.8220     0.2870 ca         1 Y2R      -0.064300
      3 C3          48.1520    35.1520    -0.0790 ca         1 Y2R      -0.083000
      4 C4          49.4530    35.5250    -0.4520 ca         1 Y2R      -0.129000
      5 C5          50.4830    34.5770    -0.4670 ca         1 Y2R       0.138100
      6 C7          52.8690    34.0860    -0.9160 c3         1 Y2R       0.122600
      7 C8          54.1210    34.8500    -1.4360 c3         1 Y2R       0.183800
      8 C10         55.4080    35.1570     0.6780 c3         1 Y2R       0.166600
      9 C11         53.9510    36.9770    -0.1310 c3         1 Y2R       0.166600
     10 C12         50.2020    33.2470    -0.0980 ca         1 Y2R      -0.182000
     11 C13         48.8940    32.8470     0.2840 ca         1 Y2R      -0.111600
     12 C14         48.6480    31.3890     0.6390 c          1 Y2R       0.611700
     13 C17         49.9610    29.3130     1.2170 c3         1 Y2R       0.162000
     14 C18         50.3060    28.8490     2.6430 c3         1 Y2R      -0.103100
     15 C19         51.0620    28.9670     0.2160 ca         1 Y2R      -0.093300
     16 C20         50.8590    27.9600    -0.7460 ca         1 Y2R      -0.085000
     17 C21         51.8370    27.6890    -1.7240 ca         1 Y2R       0.002000
     18 C22         51.6040    26.6340    -2.7140 cc         1 Y2R      -0.160000
     19 C23         52.1080    26.7040    -3.9900 cd         1 Y2R      -0.123000
     20 C24         51.7390    25.5860    -4.7860 cd         1 Y2R      -0.130000
     21 C25         50.9530    24.6730    -4.1260 cc         1 Y2R      -0.242000
     22 C27         53.0280    28.4450    -1.7300 ca         1 Y2R      -0.090000
     23 C28         53.2510    29.4520    -0.7710 ca         1 Y2R       0.000000
     24 C29         54.4710    30.2600    -0.8190 cc         1 Y2R      -0.171000
     25 C30         55.0710    30.7410     0.3190 cd         1 Y2R      -0.137000
     26 C31         56.2180    31.5310     0.0380 cd         1 Y2R      -0.144000
     27 C32         56.4930    31.6540    -1.3050 cc         1 Y2R      -0.216300
     28 C33         57.5970    32.4350    -1.9520 c3         1 Y2R       0.223100
     29 C36         52.2680    29.6970     0.2040 ca         1 Y2R      -0.089000
     30 N16         49.7400    30.7550     1.1840 ns         1 Y2R      -0.507900
     31 N34         58.8400    31.6520    -1.9440 n8         1 Y2R      -1.008200
     32 N9          54.7830    35.8080    -0.4960 n3         1 Y2R      -0.741600
     33 O15         47.6130    30.7880     0.3850 o          1 Y2R      -0.582100
     34 O6          51.7400    34.9860    -0.8640 os         1 Y2R      -0.346100
     35 S26         50.6300    25.1870    -2.4700 ss         1 Y2R       0.202000
     36 S35         55.3250    30.7540    -2.2770 ss         1 Y2R       0.275000
     37 H1B         45.9210    32.8910    -0.0600 hc         1 Y2R       0.047700
     38 H1C         46.4100    32.9240     1.6470 hc         1 Y2R       0.047700
     39 H1A         45.8280    34.3920     0.8650 hc         1 Y2R       0.047700
     40 H3          47.3680    35.9060    -0.0740 ha         1 Y2R       0.116000
     41 H4          49.6630    36.5530    -0.7360 ha         1 Y2R       0.128000
     42 H7A         53.0760    33.6520     0.0700 h1         1 Y2R       0.038200
     43 H7B         52.6580    33.2620    -1.6110 h1         1 Y2R       0.038200
     44 H8A         54.8560    34.0920    -1.7410 h1         1 Y2R       0.061200
     45 H8B         53.8340    35.3750    -2.3570 h1         1 Y2R       0.061200
     46 H10B        55.9870    35.8850     1.2610 h1         1 Y2R       0.030200
     47 H10A        54.6490    34.7170     1.3390 h1         1 Y2R       0.030200
     48 H10C        56.0940    34.3610     0.3590 h1         1 Y2R       0.030200
     49 H11B        54.5540    37.7280     0.3970 h1         1 Y2R       0.030200
     50 H11C        53.5300    37.4510    -1.0270 h1         1 Y2R       0.030200
     51 H11A        53.1230    36.6850     0.5290 h1         1 Y2R       0.030200
     52 H12         50.9940    32.5060    -0.1430 ha         1 Y2R       0.119000
     53 H17         49.0360    28.8030     0.9140 h1         1 Y2R       0.078700
     54 H18C        50.4620    27.7640     2.6630 hc         1 Y2R       0.045033
     55 H18B        51.2190    29.3360     3.0040 hc         1 Y2R       0.045033
     56 H18A        49.4890    29.0910     3.3330 hc         1 Y2R       0.045033
     57 H20         49.9270    27.4010    -0.7460 ha         1 Y2R       0.121000
     58 H23         52.7140    27.5230    -4.3660 ha         1 Y2R       0.136000
     59 H24         52.0460    25.4660    -5.8220 ha         1 Y2R       0.134000
     60 H25         50.5330    23.7420    -4.4870 h4         1 Y2R       0.150000
     61 H27         53.7950    28.2410    -2.4720 ha         1 Y2R       0.120000
     62 H30         54.7170    30.5450     1.3270 ha         1 Y2R       0.125000
     63 H31         56.8180    32.0000     0.8130 ha         1 Y2R       0.129000
     64 H33B        57.3290    32.6820    -2.9900 h1         1 Y2R       0.042700
     65 H33A        57.7570    33.3730    -1.4010 h1         1 Y2R       0.042700
     66 H36         52.4260    30.4840     0.9350 ha         1 Y2R       0.107000
     67 H16         50.5270    31.3520     1.3950 hn         1 Y2R       0.316500
     68 H34B        59.6080    32.2460    -2.2790 hn         1 Y2R       0.403500
     69 H34C        59.0890    31.4570    -0.9680 hn         1 Y2R       0.403500
@<TRIPOS>BOND
     1     1     2 1   
     2     1    37 1   
     3     1    38 1   
     4     1    39 1   
     5     2     3 ar  
     6     2    11 ar  
     7     3     4 ar  
     8     3    40 1   
     9     4     5 ar  
    10     4    41 1   
    11     5    10 ar  
    12     5    34 1   
    13     6     7 1   
    14     6    34 1   
    15     6    42 1   
    16     6    43 1   
    17     7    32 1   
    18     7    44 1   
    19     7    45 1   
    20     8    32 1   
    21     8    46 1   
    22     8    47 1   
    23     8    48 1   
    24     9    32 1   
    25     9    49 1   
    26     9    50 1   
    27     9    51 1   
    28    10    11 ar  
    29    10    52 1   
    30    11    12 1   
    31    12    30 1   
    32    12    33 2   
    33    13    14 1   
    34    13    15 1   
    35    13    30 1   
    36    13    53 1   
    37    14    54 1   
    38    14    55 1   
    39    14    56 1   
    40    15    16 ar  
    41    15    29 ar  
    42    16    17 ar  
    43    16    57 1   
    44    17    18 1   
    45    17    22 ar  
    46    18    19 2   
    47    18    35 1   
    48    19    20 1   
    49    19    58 1   
    50    20    21 2   
    51    20    59 1   
    52    21    35 1   
    53    21    60 1   
    54    22    23 ar  
    55    22    61 1   
    56    23    24 1   
    57    23    29 ar  
    58    24    25 2   
    59    24    36 1   
    60    25    26 1   
    61    25    62 1   
    62    26    27 2   
    63    26    63 1   
    64    27    28 1   
    65    27    36 1   
    66    28    31 1   
    67    28    64 1   
    68    28    65 1   
    69    29    66 1   
    70    30    67 1   
    71    31    68 1   
    72    31    69 1   
@<TRIPOS>SUBSTRUCTURE
     1 Y2R         1 TEMP              0 ****  ****    0 ROOT
