@<TRIPOS>MOLECULE
Y2S
   65    67     1     0     0
SMALL
No Charge or Current Charge


@<TRIPOS>ATOM
      1 C14        -31.1740     6.6770    20.4060 c          1 Y2S       0.514600
      2 C6         -32.2130     2.2740    24.1660 ca         1 Y2S      -0.065300
      3 C11        -33.2520     1.5070    23.6040 ca         1 Y2S      -0.092000
      4 C7         -31.4950     3.1680    23.3480 ca         1 Y2S      -0.092000
      5 C8         -31.8010     3.2920    21.9790 ca         1 Y2S      -0.106300
      6 C9         -32.8400     2.5190    21.4290 ca         1 Y2S      -0.093000
      7 C10        -33.5640     1.6300    22.2400 ca         1 Y2S      -0.107000
      8 C12        -31.0210     4.2620    21.1060 c3         1 Y2S       0.146300
      9 N2         -30.5090     0.0970    26.1670 ns         1 Y2S      -0.520900
     10 C3         -30.5160     1.4380    25.8490 c          1 Y2S       0.602100
     11 C1         -31.6370    -0.8280    26.0270 c3         1 Y2S       0.099300
     12 O4         -29.4550     2.0360    25.7570 o          1 Y2S      -0.586100
     13 N13        -31.6430     5.5830    21.1050 ns         1 Y2S      -0.488900
     14 O15        -30.1630     6.5990    19.7140 o          1 Y2S      -0.602100
     15 C16        -31.9970     7.9600    20.5620 ca         1 Y2S       0.246500
     16 N17        -33.1080     7.9430    21.3580 nb         1 Y2S      -0.646000
     17 C18        -33.8210     9.0860    21.4910 ca         1 Y2S       0.251900
     18 C19        -33.4790    10.3030    20.8460 ca         1 Y2S       0.115100
     19 C20        -32.3360    10.3270    20.0160 ca         1 Y2S      -0.058800
     20 C21        -31.5930     9.1330    19.8860 ca         1 Y2S      -0.067000
     21 C22        -31.9220    11.5810    19.3120 ce         1 Y2S      -0.165200
     22 C23        -31.1300    11.6450    18.2170 c2         1 Y2S      -0.191200
     23 C24        -30.7610    12.9600    17.5450 c6         1 Y2S      -0.032500
     24 C26        -29.3440    12.8920    16.9180 c6         1 Y2S      -0.070900
     25 C27        -28.9710    14.2200    16.2150 c6         1 Y2S      -0.071900
     26 C28        -30.0200    14.6070    15.1290 c6         1 Y2S      -0.131700
     27 C30        -31.4450    14.6640    15.7590 c6         1 Y2S      -0.071900
     28 C31        -31.8100    13.3350    16.4660 c6         1 Y2S      -0.070900
     29 C32        -29.6450    15.9270    14.3810 c3         1 Y2S       0.298000
     30 O36        -34.2300    11.4590    20.9970 os         1 Y2S      -0.330100
     31 C37        -35.4070    11.5030    21.8230 c3         1 Y2S       0.144900
     32 F33        -29.6090    16.9900    15.2180 f          1 Y2S      -0.119667
     33 F34        -30.5360    16.2160    13.4050 f          1 Y2S      -0.119667
     34 F35        -28.4310    15.8380    13.7920 f          1 Y2S      -0.119667
     35 H1         -31.8000     3.1530    26.0800 hc         1 Y2S       0.062700
     36 H2         -32.6700     1.6010    26.1580 hc         1 Y2S       0.062700
     37 H3         -33.8230     0.8170    24.2220 ha         1 Y2S       0.110000
     38 H4         -30.6950     3.7680    23.7780 ha         1 Y2S       0.107000
     39 H5         -33.0900     2.6100    20.3730 ha         1 Y2S       0.117000
     40 H6         -34.3680     1.0350    21.8110 ha         1 Y2S       0.112000
     41 H7         -29.9910     4.3510    21.4750 h1         1 Y2S       0.066200
     42 H8         -30.9790     3.8850    20.0750 h1         1 Y2S       0.066200
     43 H9         -29.5910    -0.3010    26.3330 hn         1 Y2S       0.318500
     44 H10        -31.2810    -1.8570    26.1610 h1         1 Y2S       0.036033
     45 H11        -32.3950    -0.6110    26.7910 h1         1 Y2S       0.036033
     46 H12        -32.0780    -0.7300    25.0270 h1         1 Y2S       0.036033
     47 H13        -32.4840     5.7330    21.6520 hn         1 Y2S       0.338500
     48 H14        -34.6940     9.0130    22.1380 h4         1 Y2S       0.025100
     49 H15        -30.6960     9.1060    19.2760 ha         1 Y2S       0.152000
     50 H16        -32.3260    12.5020    19.7370 ha         1 Y2S       0.190000
     51 H17        -30.7340    10.7440    17.7490 ha         1 Y2S       0.174000
     52 H18        -30.7550    13.7500    18.3100 hc         1 Y2S       0.059700
     53 H19        -29.2930    12.0670    16.1940 hc         1 Y2S       0.048950
     54 H20        -28.6030    12.6670    17.6980 hc         1 Y2S       0.048950
     55 H21        -27.9740    14.1210    15.7620 hc         1 Y2S       0.055950
     56 H22        -28.8910    15.0200    16.9640 hc         1 Y2S       0.055950
     57 H23        -30.0190    13.8220    14.3590 hc         1 Y2S       0.081700
     58 H24        -31.5050    15.4910    16.4810 hc         1 Y2S       0.055950
     59 H25        -32.1950    14.8770    14.9840 hc         1 Y2S       0.055950
     60 H26        -32.8030    13.4250    16.9270 hc         1 Y2S       0.048950
     61 H27        -31.8840    12.5300    15.7230 hc         1 Y2S       0.048950
     62 H28        -35.8480    12.5080    21.8030 h1         1 Y2S       0.046367
     63 H29        -36.1640    10.7940    21.4630 h1         1 Y2S       0.046367
     64 H30        -35.1630    11.2600    22.8650 h1         1 Y2S       0.046367
     65 C5         -31.8700     2.1480    25.6490 c3         1 Y2S      -0.113100
@<TRIPOS>BOND
     1     1    13 1   
     2     1    14 2   
     3     1    15 1   
     4     2     3 ar  
     5     2     4 ar  
     6     2    65 1   
     7     3     7 ar  
     8     3    37 1   
     9     4     5 ar  
    10     4    38 1   
    11     5     6 ar  
    12     5     8 1   
    13     6     7 ar  
    14     6    39 1   
    15     7    40 1   
    16     8    13 1   
    17     8    41 1   
    18     8    42 1   
    19     9    10 1   
    20     9    11 1   
    21     9    43 1   
    22    10    12 2   
    23    10    65 1   
    24    11    44 1   
    25    11    45 1   
    26    11    46 1   
    27    13    47 1   
    28    15    16 ar  
    29    15    20 ar  
    30    16    17 ar  
    31    17    18 ar  
    32    17    48 1   
    33    18    19 ar  
    34    18    30 1   
    35    19    20 ar  
    36    19    21 1   
    37    20    49 1   
    38    21    22 2   
    39    21    50 1   
    40    22    23 1   
    41    22    51 1   
    42    23    24 1   
    43    23    28 1   
    44    23    52 1   
    45    24    25 1   
    46    24    53 1   
    47    24    54 1   
    48    25    26 1   
    49    25    55 1   
    50    25    56 1   
    51    26    27 1   
    52    26    29 1   
    53    26    57 1   
    54    27    28 1   
    55    27    58 1   
    56    27    59 1   
    57    28    60 1   
    58    28    61 1   
    59    29    32 1   
    60    29    33 1   
    61    29    34 1   
    62    30    31 1   
    63    31    62 1   
    64    31    63 1   
    65    31    64 1   
    66    35    65 1   
    67    36    65 1   
@<TRIPOS>SUBSTRUCTURE
     1 Y2S         1 TEMP              0 ****  ****    0 ROOT
