@<TRIPOS>MOLECULE
Y2S
   65    67     1     0     0
SMALL
abcg2


@<TRIPOS>ATOM
      1 C14        -31.0990     7.5620    21.8580 c          1 Y2S       0.514600
      2 C6         -32.1120     2.0980    23.7230 ca         1 Y2S      -0.065300
      3 C11        -33.1200     2.0680    22.7630 ca         1 Y2S      -0.092000
      4 C7         -31.4060     3.2780    23.9140 ca         1 Y2S      -0.092000
      5 C8         -31.6800     4.4210    23.1670 ca         1 Y2S      -0.106300
      6 C9         -32.6860     4.3710    22.2100 ca         1 Y2S      -0.093000
      7 C10        -33.4040     3.1970    22.0140 ca         1 Y2S      -0.107000
      8 C12        -30.8620     5.6700    23.4120 c3         1 Y2S       0.146300
      9 N2         -30.6120    -1.2360    24.4460 ns         1 Y2S      -0.520900
     10 C3         -30.8730    -0.0860    23.7980 c          1 Y2S       0.602100
     11 C1         -31.1390    -1.6350    25.7320 c3         1 Y2S       0.099300
     12 O4         -30.3970     0.1680    22.7020 o          1 Y2S      -0.586100
     13 N13        -31.4930     6.8720    22.9390 ns         1 Y2S      -0.488900
     14 O15        -30.0920     7.3210    21.2080 o          1 Y2S      -0.602100
     15 C16        -32.0140     8.6900    21.4850 ca         1 Y2S       0.246500
     16 N17        -33.1350     8.8270    22.1780 nb         1 Y2S      -0.646000
     17 C18        -33.9850     9.7830    21.8440 ca         1 Y2S       0.251900
     18 C19        -33.7510    10.6640    20.7880 ca         1 Y2S       0.115100
     19 C20        -32.5550    10.5470    20.0580 ca         1 Y2S      -0.058800
     20 C21        -31.6900     9.5250    20.4240 ca         1 Y2S      -0.067000
     21 C22        -32.2570    11.4800    18.9660 ce         1 Y2S      -0.165200
     22 C23        -31.0330    11.9450    18.7110 c2         1 Y2S      -0.191200
     23 C24        -30.6560    12.9250    17.6440 c6         1 Y2S      -0.032500
     24 C26        -29.4480    12.4170    16.8460 c6         1 Y2S      -0.070900
     25 C27        -28.9770    13.4450    15.8250 c6         1 Y2S      -0.071900
     26 C28        -30.1180    13.8140    14.8740 c6         1 Y2S      -0.131700
     27 C30        -31.3280    14.3290    15.6610 c6         1 Y2S      -0.071900
     28 C31        -31.7850    13.3050    16.6940 c6         1 Y2S      -0.070900
     29 C32        -29.6880    14.8030    13.8170 c3         1 Y2S       0.298000
     30 O36        -34.5900    11.6380    20.4240 os         1 Y2S      -0.330100
     31 C37        -35.7860    11.8270    21.1600 c3         1 Y2S       0.144900
     32 F33        -29.4210    16.0220    14.3150 f          1 Y2S      -0.119667
     33 F34        -30.6340    14.9780    12.8790 f          1 Y2S      -0.119667
     34 F35        -28.5790    14.4140    13.1660 f          1 Y2S      -0.119667
     35 H1         -31.3300     1.1530    25.4800 hc         1 Y2S       0.062700
     36 H2         -32.7190     0.3510    24.7990 hc         1 Y2S       0.062700
     37 H3         -33.6900     1.1590    22.6090 ha         1 Y2S       0.110000
     38 H4         -30.6270     3.3130    24.6690 ha         1 Y2S       0.107000
     39 H5         -32.9280     5.2480    21.6230 ha         1 Y2S       0.117000
     40 H6         -34.1920     3.1700    21.2720 ha         1 Y2S       0.112000
     41 H7         -30.6620     5.7650    24.4820 h1         1 Y2S       0.066200
     42 H8         -29.8910     5.5770    22.9250 h1         1 Y2S       0.066200
     43 H9         -30.0060    -1.8860    23.9700 hn         1 Y2S       0.318500
     44 H10        -30.6970    -2.5910    25.9990 h1         1 Y2S       0.036033
     45 H11        -30.8880    -0.9210    26.5180 h1         1 Y2S       0.036033
     46 H12        -32.2230    -1.7600    25.7160 h1         1 Y2S       0.036033
     47 H13        -32.3580     7.1640    23.3710 hn         1 Y2S       0.338500
     48 H14        -34.8850     9.8490    22.4440 h4         1 Y2S       0.025100
     49 H15        -30.7720     9.3700    19.8740 ha         1 Y2S       0.152000
     50 H16        -33.1000    11.8210    18.3750 ha         1 Y2S       0.190000
     51 H17        -30.2090    11.6290    19.3480 ha         1 Y2S       0.174000
     52 H18        -30.3270    13.8380    18.1620 hc         1 Y2S       0.059700
     53 H19        -29.7180    11.4860    16.3370 hc         1 Y2S       0.048950
     54 H20        -28.6260    12.1770    17.5250 hc         1 Y2S       0.048950
     55 H21        -28.1290    13.0400    15.2720 hc         1 Y2S       0.055950
     56 H22        -28.6230    14.3380    16.3500 hc         1 Y2S       0.055950
     57 H23        -30.4190    12.9060    14.3370 hc         1 Y2S       0.081700
     58 H24        -31.0650    15.2580    16.1740 hc         1 Y2S       0.055950
     59 H25        -32.1580    14.5570    14.9900 hc         1 Y2S       0.055950
     60 H26        -32.6300    13.7170    17.2490 hc         1 Y2S       0.048950
     61 H27        -32.1490    12.4060    16.1830 hc         1 Y2S       0.048950
     62 H28        -36.2990    12.6660    20.6980 h1         1 Y2S       0.046367
     63 H29        -36.4330    10.9480    21.1170 h1         1 Y2S       0.046367
     64 H30        -35.5820    12.0700    22.2060 h1         1 Y2S       0.046367
     65 C5         -31.7980     0.8750    24.5310 c3         1 Y2S      -0.113100
@<TRIPOS>BOND
     1     1    13 1   
     2     1    14 2   
     3     1    15 1   
     4     2     3 ar  
     5     2     4 ar  
     6     2    65 1   
     7     3     7 ar  
     8     3    37 1   
     9     4     5 ar  
    10     4    38 1   
    11     5     6 ar  
    12     5     8 1   
    13     6     7 ar  
    14     6    39 1   
    15     7    40 1   
    16     8    13 1   
    17     8    41 1   
    18     8    42 1   
    19     9    10 1   
    20     9    11 1   
    21     9    43 1   
    22    10    12 2   
    23    10    65 1   
    24    11    44 1   
    25    11    45 1   
    26    11    46 1   
    27    13    47 1   
    28    15    16 ar  
    29    15    20 ar  
    30    16    17 ar  
    31    17    18 ar  
    32    17    48 1   
    33    18    19 ar  
    34    18    30 1   
    35    19    20 ar  
    36    19    21 1   
    37    20    49 1   
    38    21    22 2   
    39    21    50 1   
    40    22    23 1   
    41    22    51 1   
    42    23    24 1   
    43    23    28 1   
    44    23    52 1   
    45    24    25 1   
    46    24    53 1   
    47    24    54 1   
    48    25    26 1   
    49    25    55 1   
    50    25    56 1   
    51    26    27 1   
    52    26    29 1   
    53    26    57 1   
    54    27    28 1   
    55    27    58 1   
    56    27    59 1   
    57    28    60 1   
    58    28    61 1   
    59    29    32 1   
    60    29    33 1   
    61    29    34 1   
    62    30    31 1   
    63    31    62 1   
    64    31    63 1   
    65    31    64 1   
    66    35    65 1   
    67    36    65 1   
@<TRIPOS>SUBSTRUCTURE
     1 Y2S         1 TEMP              0 ****  ****    0 ROOT
