@<TRIPOS>MOLECULE
Y2V
   38    39     1     0     0
SMALL
No Charge or Current Charge


@<TRIPOS>ATOM
      1 N1         -17.1560    15.3660    26.4000 n          1 Y2V      -0.420800
      2 C4         -21.4550    12.3700    25.7000 cc         1 Y2V       0.052500
      3 C5         -20.1690    12.5020    24.9410 c          1 Y2V       0.553600
      4 C6         -18.8670    13.5140    26.8770 c6         1 Y2V       0.091000
      5 C7         -18.2570    14.8760    27.2780 c6         1 Y2V       0.085000
      6 C8         -16.3180    16.4010    26.8640 c          1 Y2V       0.663100
      7 C10        -15.2140    19.4890    25.9830 c3         1 Y2V       0.269000
      8 N          -19.1970    13.4170    25.4280 n          1 Y2V      -0.411800
      9 O          -19.9640    11.8770    23.9050 o          1 Y2V      -0.586100
     10 C1         -23.1300    12.7670    27.0950 cc         1 Y2V       0.160300
     11 C11        -17.3240    15.0770    24.9420 c6         1 Y2V       0.085000
     12 C12        -18.0100    13.7310    24.5930 c6         1 Y2V       0.091000
     13 C2         -23.5150    11.7290    26.2950 cd         1 Y2V      -0.200000
     14 C3         -22.4560    11.4810    25.3980 cd         1 Y2V      -0.102000
     15 F          -15.6760    19.6190    24.7180 f          1 Y2V      -0.114667
     16 F1         -16.2520    19.6870    26.8280 f          1 Y2V      -0.114667
     17 F2         -14.3110    20.4710    26.1980 f          1 Y2V      -0.114667
     18 N2         -15.4760    16.9630    25.9340 ns         1 Y2V      -0.525900
     19 O1         -16.3290    16.7750    28.0270 o          1 Y2V      -0.623100
     20 O2         -21.8690    13.1860    26.7370 os         1 Y2V      -0.238000
     21 H5         -19.7230    13.3080    27.5260 h1         1 Y2V       0.065700
     22 H6         -18.1270    12.7330    27.1040 h1         1 Y2V       0.065700
     23 H8         -19.0570    15.6290    27.2740 h1         1 Y2V       0.058200
     24 H7         -17.8960    14.7960    28.3140 h1         1 Y2V       0.058200
     25 H2         -23.9960    14.5230    27.9760 hc         1 Y2V       0.058367
     26 H1         -24.8170    13.0090    28.4050 hc         1 Y2V       0.058367
     27 H          -23.2520    13.4080    29.1410 hc         1 Y2V       0.058367
     28 H12        -17.9220    15.8900    24.5050 h1         1 Y2V       0.058200
     29 H13        -16.3480    15.0870    24.4390 h1         1 Y2V       0.058200
     30 H15        -18.2900    13.7510    23.5300 h1         1 Y2V       0.065700
     31 H14        -17.2760    12.9210    24.7170 h1         1 Y2V       0.065700
     32 H3         -24.4640    11.2040    26.3410 ha         1 Y2V       0.146000
     33 H4         -22.4310    10.7320    24.6120 ha         1 Y2V       0.156000
     34 H10        -14.1920    18.0350    27.2260 h1         1 Y2V       0.092200
     35 H11        -13.6970    18.0100    25.5290 h1         1 Y2V       0.092200
     36 H9         -15.5250    16.5900    24.9960 hn         1 Y2V       0.323500
     37 C          -23.8380    13.4650    28.2160 c3         1 Y2V      -0.128400
     38 C9         -14.5660    18.0980    26.1950 c3         1 Y2V       0.052000
@<TRIPOS>BOND
     1     1     5 1   
     2     1     6 1   
     3     1    11 1   
     4     2     3 1   
     5     2    14 2   
     6     2    20 1   
     7     3     8 1   
     8     3     9 2   
     9     4     5 1   
    10     4     8 1   
    11     4    21 1   
    12     4    22 1   
    13     5    23 1   
    14     5    24 1   
    15     6    18 1   
    16     6    19 2   
    17     7    15 1   
    18     7    16 1   
    19     7    17 1   
    20     7    38 1   
    21     8    12 1   
    22    10    13 2   
    23    10    20 1   
    24    10    37 1   
    25    11    12 1   
    26    11    28 1   
    27    11    29 1   
    28    12    30 1   
    29    12    31 1   
    30    13    14 1   
    31    13    32 1   
    32    14    33 1   
    33    18    36 1   
    34    18    38 1   
    35    25    37 1   
    36    26    37 1   
    37    27    37 1   
    38    34    38 1   
    39    35    38 1   
@<TRIPOS>SUBSTRUCTURE
     1 Y2V         1 TEMP              0 ****  ****    0 ROOT
