@<TRIPOS>MOLECULE
Y2V
   38    39     1     0     0
SMALL
bcc


@<TRIPOS>ATOM
      1 N1         -17.3690    15.2940    26.2490 n          1 Y2V      -0.487800
      2 C4         -21.2870    12.3890    25.6670 cc         1 Y2V       0.162200
      3 C5         -20.0400    12.4940    24.8900 c          1 Y2V       0.620600
      4 C6         -18.7150    13.3450    26.8500 c6         1 Y2V       0.091000
      5 C7         -18.4410    14.8130    27.1080 c6         1 Y2V       0.085000
      6 C8         -16.5410    16.2660    26.7420 c          1 Y2V       0.797100
      7 C10        -15.4480    19.3520    26.3000 c3         1 Y2V       0.632900
      8 N          -18.9770    13.1230    25.4400 n          1 Y2V      -0.478800
      9 O          -20.0220    12.0270    23.7580 o          1 Y2V      -0.586100
     10 C1         -22.8480    13.0340    27.0590 cc         1 Y2V       0.270000
     11 C11        -17.5390    14.9920    24.8390 c6         1 Y2V       0.085000
     12 C12        -17.8460    13.5140    24.6270 c6         1 Y2V       0.091000
     13 C2         -23.3040    11.8980    26.4660 cd         1 Y2V      -0.283300
     14 C3         -22.2960    11.4860    25.5530 cd         1 Y2V      -0.185300
     15 F          -15.8890    19.7500    25.0970 f          1 Y2V      -0.235967
     16 F1         -16.4870    19.4440    27.1360 f          1 Y2V      -0.235967
     17 F2         -14.5350    20.2470    26.7020 f          1 Y2V      -0.235967
     18 N2         -15.7990    16.9680    25.8340 ns         1 Y2V      -0.592900
     19 O1         -16.4390    16.4820    27.9420 o          1 Y2V      -0.623100
     20 O2         -21.6260    13.3330    26.5780 os         1 Y2V      -0.326800
     21 H5         -19.5330    13.0050    27.4750 h1         1 Y2V       0.065700
     22 H6         -17.8340    12.7570    27.1270 h1         1 Y2V       0.065700
     23 H8         -19.3560    15.3890    26.9290 h1         1 Y2V       0.058200
     24 H7         -18.1580    14.9470    28.1480 h1         1 Y2V       0.058200
     25 H2         -23.5380    14.9600    27.6750 hc         1 Y2V       0.058367
     26 H1         -24.4140    13.5920    28.3600 hc         1 Y2V       0.058367
     27 H          -22.8090    14.0050    28.9640 hc         1 Y2V       0.058367
     28 H12        -18.3420    15.5960    24.4010 h1         1 Y2V       0.058200
     29 H13        -16.6240    15.1970    24.2860 h1         1 Y2V       0.058200
     30 H15        -18.0580    13.3400    23.5760 h1         1 Y2V       0.065700
     31 H14        -16.9710    12.9150    24.8990 h1         1 Y2V       0.065700
     32 H3         -24.2510    11.4190    26.6560 ha         1 Y2V       0.164000
     33 H4         -22.3140    10.6270    24.9030 ha         1 Y2V       0.174000
     34 H10        -14.4530    17.7120    27.2340 h1         1 Y2V       0.092200
     35 H11        -14.0120    17.9750    25.5540 h1         1 Y2V       0.092200
     36 H9         -15.9670    16.8940    24.8460 hn         1 Y2V       0.323500
     37 C          -23.4290    13.9470    28.0680 c3         1 Y2V      -0.128400
     38 C9         -14.8520    17.9580    26.2510 c3         1 Y2V       0.052000
@<TRIPOS>BOND
     1     1     5 1   
     2     1     6 1   
     3     1    11 1   
     4     2     3 1   
     5     2    14 2   
     6     2    20 1   
     7     3     8 1   
     8     3     9 2   
     9     4     5 1   
    10     4     8 1   
    11     4    21 1   
    12     4    22 1   
    13     5    23 1   
    14     5    24 1   
    15     6    18 1   
    16     6    19 2   
    17     7    15 1   
    18     7    16 1   
    19     7    17 1   
    20     7    38 1   
    21     8    12 1   
    22    10    13 2   
    23    10    20 1   
    24    10    37 1   
    25    11    12 1   
    26    11    28 1   
    27    11    29 1   
    28    12    30 1   
    29    12    31 1   
    30    13    14 1   
    31    13    32 1   
    32    14    33 1   
    33    18    36 1   
    34    18    38 1   
    35    25    37 1   
    36    26    37 1   
    37    27    37 1   
    38    34    38 1   
    39    35    38 1   
@<TRIPOS>SUBSTRUCTURE
     1 Y2V         1 TEMP              0 ****  ****    0 ROOT
