@<TRIPOS>MOLECULE
Y2W
   29    29     1     0     0
SMALL
abcg2


@<TRIPOS>ATOM
      1 C5          14.6730     5.7330    55.3380 c6         1 Y2W       0.151300
      2 C4          15.6930     4.6500    55.0040 c6         1 Y2W       0.127300
      3 C3          15.7050     4.4010    53.4960 c6         1 Y2W       0.192300
      4 C6          13.2440     5.2180    55.0930 c6         1 Y2W      -0.039700
      5 C7          12.2730     6.3920    55.0180 c3         1 Y2W      -0.356400
      6 C2          14.3100     4.5770    52.8940 c6         1 Y2W      -0.071400
      7 C1          13.1600     4.2960    53.8530 c6         1 Y2W       0.167500
      8 N1          13.1850     2.9010    54.2800 n8         1 Y2W      -1.004200
      9 O1          16.2010     3.1190    53.1690 oh         1 Y2W      -0.719000
     10 O2          16.9970     5.0180    55.3930 oh         1 Y2W      -0.692000
     11 O3          14.8630     6.0900    56.6950 oh         1 Y2W      -0.738000
     12 S1          10.5750     5.9870    55.4870 s6         1 Y2W       1.315600
     13 O4           9.8530     7.2730    55.4110 o          1 Y2W      -0.694533
     14 O5          10.6650     5.4520    56.8610 o          1 Y2W      -0.694533
     15 O6          10.0780     4.9890    54.5160 o          1 Y2W      -0.694533
     16 H1          14.8690     6.6030    54.6920 h1         1 Y2W       0.025700
     17 H2          15.3840     3.7230    55.5070 h1         1 Y2W       0.079700
     18 H3          16.3540     5.1740    53.0580 h1         1 Y2W       0.019700
     19 H4          12.9910     4.6170    55.9720 hc         1 Y2W       0.090700
     20 H5          12.5660     7.1930    55.7020 h1         1 Y2W       0.062700
     21 H6          12.2480     6.8220    54.0140 h1         1 Y2W       0.062700
     22 H7          14.2060     5.6060    52.5400 hc         1 Y2W       0.044200
     23 H8          14.2220     3.9510    52.0010 hc         1 Y2W       0.044200
     24 H9          12.2350     4.5360    53.3180 h1         1 Y2W       0.060700
     25 H10         12.3380     2.7030    54.8000 hn         1 Y2W       0.397500
     26 H11         13.1550     2.3000    53.4650 hn         1 Y2W       0.397500
     27 H13         17.1020     3.0530    53.5000 ho         1 Y2W       0.500000
     28 H14         16.9560     5.2850    56.3180 ho         1 Y2W       0.458000
     29 H15         14.6290     7.0140    56.8170 ho         1 Y2W       0.508000
@<TRIPOS>BOND
     1     1     2 1   
     2     1     4 1   
     3     1    11 1   
     4     1    16 1   
     5     2     3 1   
     6     2    10 1   
     7     2    17 1   
     8     3     6 1   
     9     3     9 1   
    10     3    18 1   
    11     4     5 1   
    12     4     7 1   
    13     4    19 1   
    14     5    12 1   
    15     5    20 1   
    16     5    21 1   
    17     6     7 1   
    18     6    22 1   
    19     6    23 1   
    20     7     8 1   
    21     7    24 1   
    22     8    25 1   
    23     8    26 1   
    24     9    27 1   
    25    10    28 1   
    26    11    29 1   
    27    12    13 1   
    28    12    14 1   
    29    12    15 1   
@<TRIPOS>SUBSTRUCTURE
     1 Y2W         1 TEMP              0 ****  ****    0 ROOT
