@<TRIPOS>MOLECULE
Y2W
   29    29     1     0     0
SMALL
No Charge or Current Charge


@<TRIPOS>ATOM
      1 C5          14.7270     5.6300    55.4550 c6         1 Y2W       0.151300
      2 C4          15.7650     4.5930    54.9420 c6         1 Y2W       0.127300
      3 C3          15.6710     4.5100    53.3840 c6         1 Y2W       0.192300
      4 C6          13.2500     5.1700    55.1810 c6         1 Y2W      -0.039700
      5 C7          12.3320     6.4350    55.0140 c3         1 Y2W      -0.356400
      6 C2          14.1980     4.4580    52.8650 c6         1 Y2W      -0.071400
      7 C1          13.1430     4.1670    53.9710 c6         1 Y2W       0.167500
      8 N1          13.2420     2.7590    54.4240 n8         1 Y2W      -1.004200
      9 O1          16.4550     3.4110    52.8910 oh         1 Y2W      -0.719000
     10 O2          17.0900     4.9730    55.3610 oh         1 Y2W      -0.692000
     11 O3          14.9320     5.8860    56.8580 oh         1 Y2W      -0.738000
     12 S1          10.5540     6.2590    55.3440 s6         1 Y2W       1.315600
     13 O4          10.0460     7.6300    55.1980 o          1 Y2W      -0.694533
     14 O5          10.5050     5.7360    56.7170 o          1 Y2W      -0.694533
     15 O6          10.0810     5.3250    54.3150 o          1 Y2W      -0.694533
     16 H1          14.9010     6.5590    54.8910 h1         1 Y2W       0.025700
     17 H2          15.5110     3.6130    55.3730 h1         1 Y2W       0.079700
     18 H3          16.1030     5.4400    52.9860 h1         1 Y2W       0.019700
     19 H4          12.8920     4.6470    56.0790 hc         1 Y2W       0.090700
     20 H5          12.6570     7.2110    55.7150 h1         1 Y2W       0.062700
     21 H6          12.4250     6.8330    53.9980 h1         1 Y2W       0.062700
     22 H7          13.9580     5.4310    52.4150 hc         1 Y2W       0.044200
     23 H8          14.1010     3.7310    52.0460 hc         1 Y2W       0.044200
     24 H9          12.1530     4.2590    53.5030 h1         1 Y2W       0.060700
     25 H10         12.3700     2.5060    54.9030 hn         1 Y2W       0.397500
     26 H11         13.2480     2.1480    53.6000 hn         1 Y2W       0.397500
     27 H13         17.2850     3.4410    53.4210 ho         1 Y2W       0.500000
     28 H14         16.9330     5.4310    56.2210 ho         1 Y2W       0.458000
     29 H15         14.2030     6.4840    57.1420 ho         1 Y2W       0.508000
@<TRIPOS>BOND
     1     1     2 1   
     2     1     4 1   
     3     1    11 1   
     4     1    16 1   
     5     2     3 1   
     6     2    10 1   
     7     2    17 1   
     8     3     6 1   
     9     3     9 1   
    10     3    18 1   
    11     4     5 1   
    12     4     7 1   
    13     4    19 1   
    14     5    12 1   
    15     5    20 1   
    16     5    21 1   
    17     6     7 1   
    18     6    22 1   
    19     6    23 1   
    20     7     8 1   
    21     7    24 1   
    22     8    25 1   
    23     8    26 1   
    24     9    27 1   
    25    10    28 1   
    26    11    29 1   
    27    12    13 1   
    28    12    14 1   
    29    12    15 1   
@<TRIPOS>SUBSTRUCTURE
     1 Y2W         1 TEMP              0 ****  ****    0 ROOT
