@<TRIPOS>MOLECULE
Y2Y
   24    23     1     0     0
SMALL
No Charge or Current Charge


@<TRIPOS>ATOM
      1 N           40.4780    17.6700    11.6540 n8         1 Y2Y      -0.978200
      2 CA          39.2610    15.8110    15.5610 c3         1 Y2Y      -0.208400
      3 C           40.1330    16.1870    16.7760 c          1 Y2Y       0.717000
      4 O           39.6710    16.9620    17.5990 o          1 Y2Y      -0.751000
      5 CB1         38.3370    17.0680    10.5610 c3         1 Y2Y      -0.189400
      6 CG1         38.2360    18.2760     9.6130 c          1 Y2Y       0.731000
      7 OD1         37.2980    19.0460     9.7610 o          1 Y2Y      -0.757000
      8 OD2         39.0760    18.4090     8.7340 o          1 Y2Y      -0.757000
      9 C01         39.4900    16.8190    14.3980 c3         1 Y2Y      -0.094400
     10 C2          38.7740    16.4450    13.0670 c3         1 Y2Y       0.123300
     11 CA1         39.0270    17.4710    11.8940 c3         1 Y2Y       0.181500
     12 O1          37.3710    16.3300    13.3450 oh         1 Y2Y      -0.664000
     13 H1          40.9420    17.8370    12.5530 hn         1 Y2Y       0.372000
     14 H2          40.8800    16.7850    11.3290 hn         1 Y2Y       0.372000
     15 H4          38.1990    15.8770    15.8270 hc         1 Y2Y       0.010700
     16 H5          39.5590    14.8300    15.1690 hc         1 Y2Y       0.010700
     17 H7          37.3200    16.7620    10.8310 hc         1 Y2Y       0.017200
     18 H8          38.9250    16.2560    10.1140 hc         1 Y2Y       0.017200
     19 H10         40.5700    16.8820    14.2190 hc         1 Y2Y       0.045200
     20 H11         39.1690    17.8190    14.7170 hc         1 Y2Y       0.045200
     21 H12         39.1550    15.4660    12.7490 h1         1 Y2Y      -0.000300
     22 H13         38.6040    18.4340    12.2190 h1         1 Y2Y       0.083700
     23 H14         37.3040    15.8590    14.2030 ho         1 Y2Y       0.423000
     24 OXT         41.2650    15.7330    16.8370 o          1 Y2Y      -0.751000
@<TRIPOS>BOND
     1     1    11 1   
     2     1    13 1   
     3     1    14 1   
     4     2     3 1   
     5     2     9 1   
     6     2    15 1   
     7     2    16 1   
     8     3     4 1   
     9     3    24 1   
    10     5     6 1   
    11     5    11 1   
    12     5    17 1   
    13     5    18 1   
    14     6     7 1   
    15     6     8 1   
    16     9    10 1   
    17     9    19 1   
    18     9    20 1   
    19    10    11 1   
    20    10    12 1   
    21    10    21 1   
    22    11    22 1   
    23    12    23 1   
@<TRIPOS>SUBSTRUCTURE
     1 Y2Y         1 TEMP              0 ****  ****    0 ROOT
