@<TRIPOS>MOLECULE
Y2Y
   24    23     1     0     0
SMALL
abcg2


@<TRIPOS>ATOM
      1 N           40.3220    17.9750    11.7390 n8         1 Y2Y      -0.978200
      2 CA          39.3610    15.8210    15.4850 c3         1 Y2Y      -0.208400
      3 C           40.1510    16.1060    16.7800 c          1 Y2Y       0.717000
      4 O           40.4520    17.2920    17.0210 o          1 Y2Y      -0.751000
      5 CB1         38.3650    17.0600    10.6570 c3         1 Y2Y      -0.189400
      6 CG1         38.2630    18.1630     9.5870 c          1 Y2Y       0.731000
      7 OD1         37.7990    19.2620     9.9590 o          1 Y2Y      -0.757000
      8 OD2         38.6100    17.8620     8.4260 o          1 Y2Y      -0.757000
      9 C01         39.4780    16.8800    14.3960 c3         1 Y2Y      -0.094400
     10 C2          38.8340    16.4630    13.0750 c3         1 Y2Y       0.123300
     11 CA1         38.9530    17.5370    11.9800 c3         1 Y2Y       0.181500
     12 O1          37.4530    16.1920    13.2410 oh         1 Y2Y      -0.664000
     13 H1          40.7240    18.3800    12.5740 hn         1 Y2Y       0.372000
     14 H2          40.9010    17.1760    11.5060 hn         1 Y2Y       0.372000
     15 H4          38.3110    15.6930    15.7810 hc         1 Y2Y       0.010700
     16 H5          39.6730    14.8480    15.0900 hc         1 Y2Y       0.010700
     17 H7          37.3590    16.6640    10.8250 hc         1 Y2Y       0.017200
     18 H8          38.9630    16.2210    10.2830 hc         1 Y2Y       0.017200
     19 H10         40.5380    17.0780    14.2230 hc         1 Y2Y       0.045200
     20 H11         39.0360    17.8230    14.7320 hc         1 Y2Y       0.045200
     21 H12         39.3580    15.5600    12.7140 h1         1 Y2Y      -0.000300
     22 H13         38.3860    18.4120    12.3130 h1         1 Y2Y       0.083700
     23 H14         37.3580    15.4500    13.8450 ho         1 Y2Y       0.423000
     24 OXT         40.3990    15.1140    17.4970 o          1 Y2Y      -0.751000
@<TRIPOS>BOND
     1     1    11 1   
     2     1    13 1   
     3     1    14 1   
     4     2     3 1   
     5     2     9 1   
     6     2    15 1   
     7     2    16 1   
     8     3     4 1   
     9     3    24 1   
    10     5     6 1   
    11     5    11 1   
    12     5    17 1   
    13     5    18 1   
    14     6     7 1   
    15     6     8 1   
    16     9    10 1   
    17     9    19 1   
    18     9    20 1   
    19    10    11 1   
    20    10    12 1   
    21    10    21 1   
    22    11    22 1   
    23    12    23 1   
@<TRIPOS>SUBSTRUCTURE
     1 Y2Y         1 TEMP              0 ****  ****    0 ROOT
