@<TRIPOS>MOLECULE
Y30
   68    71     1     0     0
SMALL
abcg2


@<TRIPOS>ATOM
      1 OAE         -3.2780     2.5480    -2.0900 o          1 Y30      -0.700000
      2 CBA         -2.3090     1.8260    -2.3830 c          1 Y30       0.721200
      3 OAG         -1.7010     1.7670    -3.4690 o          1 Y30      -0.700000
      4 CBH         -1.8180     0.8870    -1.3150 cc         1 Y30      -0.062300
      5 NAY         -0.8330    -0.0020    -1.6320 na         1 Y30      -0.184700
      6 CBJ         -0.5450    -0.7910    -0.5680 ca         1 Y30      -0.059200
      7 CAU          0.3920    -1.8140    -0.4330 ca         1 Y30      -0.107000
      8 CBD          0.4320    -2.4460     0.7890 ca         1 Y30       0.112000
      9 CLI          1.5800    -3.7330     1.0330 cl         1 Y30      -0.260000
     10 CAQ         -0.4150    -2.1020     1.8530 ca         1 Y30      -0.148000
     11 CAT         -1.3260    -1.0790     1.7010 ca         1 Y30      -0.063000
     12 CBK         -1.4010    -0.3990     0.4820 ca         1 Y30      -0.079800
     13 CBI         -2.1920     0.6910    -0.0020 cd         1 Y30      -0.222400
     14 CA          -3.0970     1.5000     0.8830 c3         1 Y30       0.142900
     15 C           -4.5960     1.5260     0.5220 c          1 Y30       0.623100
     16 NAX         -4.9910     0.5280    -0.2700 ns         1 Y30      -0.480900
     17 CBN         -6.3470     0.3120    -0.7860 c3         1 Y30       0.141400
     18 CAA         -7.3160     0.0010     0.3540 c3         1 Y30      -0.102767
     19 CAC         -6.8200     1.5260    -1.5890 c3         1 Y30      -0.102767
     20 CAB         -6.2550    -0.8970    -1.7160 c3         1 Y30      -0.102767
     21 O           -5.3400     2.3380     1.0510 o          1 Y30      -0.637100
     22 N           -2.5800     2.8260     1.1940 n          1 Y30      -0.399800
     23 CAJ         -2.9590     3.9380     0.5340 c          1 Y30       0.621900
     24 OAD         -2.4970     5.0520     0.7330 o          1 Y30      -0.650100
     25 CAW         -1.5490     2.9010     2.2150 c3         1 Y30       0.144300
     26 CBF         -0.2330     2.3020     1.7860 ca         1 Y30      -0.125300
     27 CAP          0.3150     2.5780     0.5330 ca         1 Y30      -0.057000
     28 CAS          1.4700     1.9550     0.1080 ca         1 Y30      -0.171000
     29 CAO          0.4440     1.4210     2.6100 ca         1 Y30      -0.057000
     30 CAR          1.6170     0.7920     2.2070 ca         1 Y30      -0.171000
     31 CBG          2.1220     1.0400     0.9380 ca         1 Y30       0.129100
     32 OAZ          3.2270     0.4530     0.4250 os         1 Y30      -0.345100
     33 CAV          3.9110    -0.4980     1.2250 c3         1 Y30       0.206900
     34 CBE          5.0750    -0.9980     0.4250 ca         1 Y30      -0.079300
     35 CAM          6.2810    -0.3040     0.4260 ca         1 Y30      -0.077500
     36 CAN          4.9610    -2.1420    -0.3570 ca         1 Y30      -0.077500
     37 CAL          6.0260    -2.5940    -1.1220 ca         1 Y30      -0.112500
     38 CBC          7.2160    -1.8840    -1.1020 ca         1 Y30       0.124000
     39 CLH          8.5550    -2.4410    -2.0510 cl         1 Y30      -0.220000
     40 CAK          7.3570    -0.7390    -0.3320 ca         1 Y30      -0.112500
     41 H2          -0.4040    -0.0350    -2.5430 hn         1 Y30       0.373000
     42 H3           1.0510    -2.0940    -1.2430 ha         1 Y30       0.122000
     43 H4          -0.3440    -2.6350     2.7910 ha         1 Y30       0.110000
     44 H5          -1.9660    -0.8120     2.5330 ha         1 Y30       0.108000
     45 H6          -4.2530     0.0050    -0.7170 hn         1 Y30       0.331500
     46 H7          -7.4060     0.8350     1.0470 hc         1 Y30       0.041144
     47 H8          -8.3080    -0.2080    -0.0490 hc         1 Y30       0.041144
     48 H9          -6.9880    -0.8770     0.9110 hc         1 Y30       0.041144
     49 H10         -6.1100     1.7540    -2.3850 hc         1 Y30       0.041144
     50 H11         -7.7900     1.3170    -2.0430 hc         1 Y30       0.041144
     51 H12         -6.9230     2.4090    -0.9620 hc         1 Y30       0.041144
     52 H13         -5.8940    -1.7800    -1.1850 hc         1 Y30       0.041144
     53 H14         -7.2360    -1.1320    -2.1280 hc         1 Y30       0.041144
     54 H15         -5.5810    -0.7000    -2.5520 hc         1 Y30       0.041144
     55 H16         -0.1830     3.2670    -0.1390 ha         1 Y30       0.119500
     56 H17          1.8670     2.1550    -0.8790 ha         1 Y30       0.116000
     57 H18          0.0380     1.1830     3.5870 ha         1 Y30       0.119500
     58 H19          2.0890     0.0940     2.8830 ha         1 Y30       0.116000
     59 H20          4.2580    -0.0370     2.1560 h1         1 Y30       0.043700
     60 H21          3.2450    -1.3270     1.4910 h1         1 Y30       0.043700
     61 H22          6.3900     0.5870     1.0330 ha         1 Y30       0.125500
     62 H23          4.0330    -2.7000    -0.3660 ha         1 Y30       0.125500
     63 H24          5.9280    -3.4880    -1.7220 ha         1 Y30       0.125500
     64 H25          8.2910    -0.1960    -0.3180 ha         1 Y30       0.125500
     65 H26         -3.1090     0.9730     1.8460 h1         1 Y30       0.047700
     66 H27         -3.7300     3.7610    -0.2150 h5         1 Y30       0.075200
     67 H28         -1.4290     3.9490     2.4880 h1         1 Y30       0.053200
     68 H29         -1.9070     2.3800     3.1080 h1         1 Y30       0.053200
@<TRIPOS>BOND
     1     1     2 1   
     2     2     3 1   
     3     2     4 1   
     4     4     5 1   
     5     4    13 2   
     6     5     6 1   
     7     5    41 1   
     8     6     7 ar  
     9     6    12 ar  
    10     7     8 ar  
    11     7    42 1   
    12     8     9 1   
    13     8    10 ar  
    14    10    11 ar  
    15    10    43 1   
    16    11    12 ar  
    17    11    44 1   
    18    12    13 1   
    19    13    14 1   
    20    14    15 1   
    21    14    22 1   
    22    14    65 1   
    23    15    16 1   
    24    15    21 2   
    25    16    17 1   
    26    16    45 1   
    27    17    18 1   
    28    17    19 1   
    29    17    20 1   
    30    18    46 1   
    31    18    47 1   
    32    18    48 1   
    33    19    49 1   
    34    19    50 1   
    35    19    51 1   
    36    20    52 1   
    37    20    53 1   
    38    20    54 1   
    39    22    23 1   
    40    22    25 1   
    41    23    24 2   
    42    23    66 1   
    43    25    26 1   
    44    25    67 1   
    45    25    68 1   
    46    26    27 ar  
    47    26    29 ar  
    48    27    28 ar  
    49    27    55 1   
    50    28    31 ar  
    51    28    56 1   
    52    29    30 ar  
    53    29    57 1   
    54    30    31 ar  
    55    30    58 1   
    56    31    32 1   
    57    32    33 1   
    58    33    34 1   
    59    33    59 1   
    60    33    60 1   
    61    34    35 ar  
    62    34    36 ar  
    63    35    40 ar  
    64    35    61 1   
    65    36    37 ar  
    66    36    62 1   
    67    37    38 ar  
    68    37    63 1   
    69    38    39 1   
    70    38    40 ar  
    71    40    64 1   
@<TRIPOS>SUBSTRUCTURE
     1 Y30         1 TEMP              0 ****  ****    0 ROOT
