@<TRIPOS>MOLECULE
Y30
   68    71     1     0     0
SMALL
No Charge or Current Charge


@<TRIPOS>ATOM
      1 OAE         -3.2240     2.9030    -2.0000 o          1 Y30      -0.700000
      2 CBA         -2.3290     2.1470    -2.3420 c          1 Y30       0.721200
      3 OAG         -1.8430     2.1770    -3.4640 o          1 Y30      -0.700000
      4 CBH         -1.8120     1.1090    -1.3950 cc         1 Y30      -0.062300
      5 NAY         -0.8330     0.1330    -1.6790 na         1 Y30      -0.184700
      6 CBJ         -0.6160    -0.6750    -0.5850 ca         1 Y30      -0.059200
      7 CAU          0.2790    -1.7440    -0.4490 ca         1 Y30      -0.107000
      8 CBD          0.3160    -2.4140     0.7910 ca         1 Y30       0.112000
      9 ClI          1.4260    -3.7580     1.0230 cl         1 Y30      -0.260000
     10 CAQ         -0.5340    -2.0150     1.8480 ca         1 Y30      -0.148000
     11 CAT         -1.4230    -0.9320     1.6780 ca         1 Y30      -0.063000
     12 CBK         -1.4270    -0.2740     0.4360 ca         1 Y30      -0.079800
     13 CBI         -2.1710     0.8760    -0.0510 cd         1 Y30      -0.222400
     14 CA          -3.1250     1.6820     0.8340 c3         1 Y30       0.142900
     15 C           -4.6290     1.6210     0.3990 c          1 Y30       0.623100
     16 NAX         -4.9650     0.4610    -0.2790 ns         1 Y30      -0.480900
     17 CBN         -6.2740     0.0780    -0.8200 c3         1 Y30       0.141400
     18 CAA         -7.3140    -0.0650     0.3190 c3         1 Y30      -0.102767
     19 CAC         -6.7530     1.1140    -1.8690 c3         1 Y30      -0.102767
     20 CAB         -6.0900    -1.2920    -1.5130 c3         1 Y30      -0.102767
     21 O           -5.4540     2.4830     0.6880 o          1 Y30      -0.637100
     22 N           -2.5650     3.0110     1.2570 n          1 Y30      -0.399800
     23 CAJ         -3.0320     4.2270     0.7100 c          1 Y30       0.621900
     24 OAD         -2.5900     5.3230     1.0490 o          1 Y30      -0.650100
     25 CAW         -1.5270     3.0140     2.3220 c3         1 Y30       0.144300
     26 CBF         -0.1890     2.4150     1.8990 ca         1 Y30      -0.125300
     27 CAP          0.4110     2.7890     0.6800 ca         1 Y30      -0.057000
     28 CAS          1.5990     2.1680     0.2580 ca         1 Y30      -0.171000
     29 CAO          0.4380     1.4510     2.7100 ca         1 Y30      -0.057000
     30 CAR          1.6250     0.8280     2.2870 ca         1 Y30      -0.171000
     31 CBG          2.2000     1.1740     1.0450 ca         1 Y30       0.129100
     32 OAZ          3.3340     0.5600     0.5560 os         1 Y30      -0.345100
     33 CAV          3.9410    -0.5570     1.2250 c3         1 Y30       0.206900
     34 CBE          5.0760    -1.0830     0.3570 ca         1 Y30      -0.079300
     35 CAM          6.3800    -0.5680     0.5010 ca         1 Y30      -0.077500
     36 CAN          4.8270    -2.0880    -0.6000 ca         1 Y30      -0.077500
     37 CAL          5.8740    -2.5750    -1.4030 ca         1 Y30      -0.112500
     38 CBC          7.1710    -2.0590    -1.2530 ca         1 Y30       0.124000
     39 ClH          8.4790    -2.6680    -2.2590 cl         1 Y30      -0.220000
     40 CAK          7.4250    -1.0560    -0.3030 ca         1 Y30      -0.112500
     41 H2          -0.3620     0.0430    -2.5730 hn         1 Y30       0.373000
     42 H3           0.9280    -2.0460    -1.2670 ha         1 Y30       0.122000
     43 H4          -0.4970    -2.5410     2.7980 ha         1 Y30       0.110000
     44 H5          -2.0660    -0.6160     2.4950 ha         1 Y30       0.108000
     45 H6          -4.1890    -0.1680    -0.4490 hn         1 Y30       0.331500
     46 H7          -7.5190     0.8960     0.8030 hc         1 Y30       0.041144
     47 H8          -8.2650    -0.4480    -0.0710 hc         1 Y30       0.041144
     48 H9          -6.9580    -0.7630     1.0860 hc         1 Y30       0.041144
     49 H10         -5.9980     1.2530    -2.6520 hc         1 Y30       0.041144
     50 H11         -7.6810     0.7790    -2.3480 hc         1 Y30       0.041144
     51 H12         -6.9520     2.0900    -1.4120 hc         1 Y30       0.041144
     52 H13         -5.7440    -2.0490    -0.7990 hc         1 Y30       0.041144
     53 H14         -7.0350    -1.6430    -1.9450 hc         1 Y30       0.041144
     54 H15         -5.3520    -1.2270    -2.3220 hc         1 Y30       0.041144
     55 H16         -0.0600     3.5350     0.0450 ha         1 Y30       0.119500
     56 H17          2.0410     2.4400    -0.6970 ha         1 Y30       0.116000
     57 H18         -0.0100     1.1570     3.6560 ha         1 Y30       0.119500
     58 H19          2.0680     0.0700     2.9250 ha         1 Y30       0.116000
     59 H20          4.3340    -0.2560     2.2050 h1         1 Y30       0.043700
     60 H21          3.2070    -1.3580     1.3830 h1         1 Y30       0.043700
     61 H22          6.5820     0.2100     1.2330 ha         1 Y30       0.125500
     62 H23          3.8230    -2.4890    -0.7220 ha         1 Y30       0.125500
     63 H24          5.6790    -3.3500    -2.1400 ha         1 Y30       0.125500
     64 H25          8.4310    -0.6580    -0.1910 ha         1 Y30       0.125500
     65 H26         -3.1750     1.1140     1.7690 h1         1 Y30       0.047700
     66 H27         -3.8320     4.1140    -0.0420 h5         1 Y30       0.075200
     67 H28         -1.3490     4.0350     2.6830 h1         1 Y30       0.053200
     68 H29         -1.9190     2.4490     3.1770 h1         1 Y30       0.053200
@<TRIPOS>BOND
     1     1     2 1   
     2     2     3 1   
     3     2     4 1   
     4     4     5 1   
     5     4    13 2   
     6     5     6 1   
     7     5    41 1   
     8     6     7 ar  
     9     6    12 ar  
    10     7     8 ar  
    11     7    42 1   
    12     8     9 1   
    13     8    10 ar  
    14    10    11 ar  
    15    10    43 1   
    16    11    12 ar  
    17    11    44 1   
    18    12    13 1   
    19    13    14 1   
    20    14    15 1   
    21    14    22 1   
    22    14    65 1   
    23    15    16 1   
    24    15    21 2   
    25    16    17 1   
    26    16    45 1   
    27    17    18 1   
    28    17    19 1   
    29    17    20 1   
    30    18    46 1   
    31    18    47 1   
    32    18    48 1   
    33    19    49 1   
    34    19    50 1   
    35    19    51 1   
    36    20    52 1   
    37    20    53 1   
    38    20    54 1   
    39    22    23 1   
    40    22    25 1   
    41    23    24 2   
    42    23    66 1   
    43    25    26 1   
    44    25    67 1   
    45    25    68 1   
    46    26    27 ar  
    47    26    29 ar  
    48    27    28 ar  
    49    27    55 1   
    50    28    31 ar  
    51    28    56 1   
    52    29    30 ar  
    53    29    57 1   
    54    30    31 ar  
    55    30    58 1   
    56    31    32 1   
    57    32    33 1   
    58    33    34 1   
    59    33    59 1   
    60    33    60 1   
    61    34    35 ar  
    62    34    36 ar  
    63    35    40 ar  
    64    35    61 1   
    65    36    37 ar  
    66    36    62 1   
    67    37    38 ar  
    68    37    63 1   
    69    38    39 1   
    70    38    40 ar  
    71    40    64 1   
@<TRIPOS>SUBSTRUCTURE
     1 Y30         1 TEMP              0 ****  ****    0 ROOT
