@<TRIPOS>MOLECULE
Y31
   13    13     1     0     0
SMALL
abcg2


@<TRIPOS>ATOM
      1 C4         -20.3910    12.8050    26.4440 ca         1 Y31      -0.094900
      2 C5         -21.4640    13.1500    27.2460 ca         1 Y31      -0.033000
      3 BR         -18.6280    13.2260    26.9640 br         1 Y31      -0.152100
      4 C3         -20.6130    12.1460    25.2430 ca         1 Y31       0.327900
      5 N          -21.8330    11.8330    24.8320 nb         1 Y31      -0.707000
      6 C2         -22.8650    12.1650    25.6000 ca         1 Y31       0.355900
      7 C1         -22.7450    12.8250    26.8190 ca         1 Y31      -0.183600
      8 C          -23.9700    13.1900    27.6570 c          1 Y31       0.721600
      9 O          -25.0690    12.8260    27.2030 o          1 Y31      -0.710500
     10 O1         -23.7430    13.8150    28.7080 o          1 Y31      -0.710500
     11 H1         -21.3250    13.6630    28.1890 ha         1 Y31       0.148000
     12 H2         -19.7870    11.8650    24.5980 h4         1 Y31       0.003100
     13 H3         -23.8470    11.8950    25.2310 h4         1 Y31       0.036100
@<TRIPOS>BOND
     1     1     2 ar  
     2     1     3 1   
     3     1     4 ar  
     4     2     7 ar  
     5     2    11 1   
     6     4     5 ar  
     7     4    12 1   
     8     5     6 ar  
     9     6     7 ar  
    10     6    13 1   
    11     7     8 1   
    12     8     9 1   
    13     8    10 1   
@<TRIPOS>SUBSTRUCTURE
     1 Y31         1 TEMP              0 ****  ****    0 ROOT
