@<TRIPOS>MOLECULE
Y31
   13    13     1     0     0
SMALL
No Charge or Current Charge


@<TRIPOS>ATOM
      1 C4         -20.3630    12.8130    26.4470 ca         1 Y31      -0.094900
      2 C5         -21.4500    13.1680    27.2610 ca         1 Y31      -0.033000
      3 Br         -18.5760    13.2410    26.9840 br         1 Y31      -0.152100
      4 C3         -20.6060    12.1400    25.2350 ca         1 Y31       0.327900
      5 N          -21.8500    11.8160    24.8120 nb         1 Y31      -0.707000
      6 C2         -22.8980    12.1610    25.6010 ca         1 Y31       0.355900
      7 C1         -22.7520    12.8350    26.8290 ca         1 Y31      -0.183600
      8 C          -23.9670    13.1800    27.6420 c          1 Y31       0.721600
      9 O          -25.0670    12.8640    27.2130 o          1 Y31      -0.710500
     10 O1         -23.8070    13.7650    28.7030 o          1 Y31      -0.710500
     11 H1         -21.2820    13.6890    28.2010 ha         1 Y31       0.148000
     12 H2         -19.7820    11.8510    24.5830 h4         1 Y31       0.003100
     13 H3         -23.8810    11.8810    25.2230 h4         1 Y31       0.036100
@<TRIPOS>BOND
     1     1     2 ar  
     2     1     3 1   
     3     1     4 ar  
     4     2     7 ar  
     5     2    11 1   
     6     4     5 ar  
     7     4    12 1   
     8     5     6 ar  
     9     6     7 ar  
    10     6    13 1   
    11     7     8 1   
    12     8     9 1   
    13     8    10 1   
@<TRIPOS>SUBSTRUCTURE
     1 Y31         1 TEMP              0 ****  ****    0 ROOT
