@<TRIPOS>MOLECULE
Y32
   42    43     1     0     0
SMALL
No Charge or Current Charge


@<TRIPOS>ATOM
      1 N1           5.8470    50.5360    15.0580 ns         1 Y32      -0.460900
      2 C4           6.2970    51.2260    17.4250 c3         1 Y32      -0.063400
      3 C5           8.2260    50.9520    15.7140 c          1 Y32       0.722000
      4 C6           7.1430    52.0550    18.4280 c3         1 Y32      -0.150400
      5 C7           7.0810    53.5630    18.1560 c          1 Y32       0.594100
      6 C8           2.5270    50.1860    13.3330 ca         1 Y32      -0.129000
      7 C10          2.4090    48.0690    12.1390 ca         1 Y32      -0.135000
      8 C13         -0.3990    50.1970    12.8580 ca         1 Y32       0.118100
      9 C15         -2.2630    51.7560    13.0290 ca         1 Y32      -0.096000
     10 C17         -1.4980    50.5540    15.0050 ca         1 Y32      -0.096000
     11 C1           3.8360    49.8870    13.7820 ca         1 Y32      -0.097600
     12 C2           4.5720    50.8870    14.6570 c          1 Y32       0.608700
     13 O1           4.0720    51.9550    14.9900 o          1 Y32      -0.604100
     14 C3           6.7290    51.3430    15.9360 c3         1 Y32      -0.038300
     15 N2           8.0240    54.0610    17.3340 nt         1 Y32      -0.606000
     16 O4           6.2360    54.2990    18.6380 o          1 Y32      -0.675100
     17 C9           1.8150    49.2780    12.5260 ca         1 Y32       0.107100
     18 C11          3.7050    47.7540    12.5750 ca         1 Y32      -0.102000
     19 C12          4.4140    48.6520    13.3920 ca         1 Y32      -0.108000
     20 O5           0.5470    49.5700    12.0770 os         1 Y32      -0.265200
     21 C14         -1.2790    51.1110    12.2570 ca         1 Y32      -0.127000
     22 C16         -2.3700    51.4780    14.4030 ca         1 Y32      -0.125000
     23 C18         -0.5150    49.9090    14.2340 ca         1 Y32      -0.127000
     24 H1           6.2000    49.6450    14.7330 hn         1 Y32       0.297500
     25 H2           5.2470    51.5300    17.5210 hc         1 Y32       0.029200
     26 H3           6.3420    50.1710    17.7230 hc         1 Y32       0.029200
     27 H4           6.7670    51.8600    19.4400 hc         1 Y32       0.061200
     28 H5           8.1810    51.7120    18.3450 hc         1 Y32       0.061200
     29 H6           2.0630    51.1310    13.6080 ha         1 Y32       0.145000
     30 H7           1.8630    47.3740    11.5060 ha         1 Y32       0.116000
     31 H8          -2.9410    52.4680    12.5630 ha         1 Y32       0.110500
     32 H9          -1.5860    50.3350    16.0670 ha         1 Y32       0.110500
     33 H10          6.6280    52.3900    15.6240 h1         1 Y32       0.061700
     34 H12          8.0200    55.0440    17.1120 hn         1 Y32       0.332500
     35 H13          8.6670    53.4290    16.8690 hn         1 Y32       0.332500
     36 H14          4.1630    46.8130    12.2790 ha         1 Y32       0.108000
     37 H15          5.4160    48.3720    13.7100 ha         1 Y32       0.132000
     38 H16         -1.1960    51.3230    11.1940 ha         1 Y32       0.127500
     39 H17         -3.1300    51.9760    15.0000 ha         1 Y32       0.109000
     40 H18          0.1490    49.1870    14.7020 ha         1 Y32       0.127500
     41 O2           9.0500    51.8550    15.6660 o          1 Y32      -0.717500
     42 O3           8.5010    49.7780    15.5030 o          1 Y32      -0.717500
@<TRIPOS>BOND
     1     1    12 1   
     2     1    14 1   
     3     1    24 1   
     4     2     4 1   
     5     2    14 1   
     6     2    25 1   
     7     2    26 1   
     8     3    14 1   
     9     3    41 1   
    10     3    42 1   
    11     4     5 1   
    12     4    27 1   
    13     4    28 1   
    14     5    15 1   
    15     5    16 2   
    16     6    11 ar  
    17     6    17 ar  
    18     6    29 1   
    19     7    17 ar  
    20     7    18 ar  
    21     7    30 1   
    22     8    20 1   
    23     8    21 ar  
    24     8    23 ar  
    25     9    21 ar  
    26     9    22 ar  
    27     9    31 1   
    28    10    22 ar  
    29    10    23 ar  
    30    10    32 1   
    31    11    12 1   
    32    11    19 ar  
    33    12    13 2   
    34    14    33 1   
    35    15    34 1   
    36    15    35 1   
    37    17    20 1   
    38    18    19 ar  
    39    18    36 1   
    40    19    37 1   
    41    21    38 1   
    42    22    39 1   
    43    23    40 1   
@<TRIPOS>SUBSTRUCTURE
     1 Y32         1 TEMP              0 ****  ****    0 ROOT
