@<TRIPOS>MOLECULE
Y32
   42    43     1     0     0
SMALL
abcg2


@<TRIPOS>ATOM
      1 N1           5.3700    50.5620    15.4990 ns         1 Y32      -0.460900
      2 C4           6.9870    50.8520    17.2550 c3         1 Y32      -0.063400
      3 C5           7.3420    51.9930    15.0090 c          1 Y32       0.722000
      4 C6           8.0080    51.7070    18.0090 c3         1 Y32      -0.150400
      5 C7           7.3930    52.9440    18.6380 c          1 Y32       0.594100
      6 C8           2.4530    49.9940    13.4700 ca         1 Y32      -0.129000
      7 C10          2.3310    47.7290    12.6480 ca         1 Y32      -0.135000
      8 C13         -0.3460    50.0920    12.9140 ca         1 Y32       0.118100
      9 C15         -1.7820    51.9700    12.5280 ca         1 Y32      -0.096000
     10 C17         -1.5440    51.0710    14.7420 ca         1 Y32      -0.096000
     11 C1           3.7560    49.7610    13.9050 ca         1 Y32      -0.097600
     12 C2           4.4960    50.8970    14.5420 c          1 Y32       0.608700
     13 O1           4.2840    52.0560    14.2080 o          1 Y32      -0.604100
     14 C3           6.3000    51.5190    16.0580 c3         1 Y32      -0.038300
     15 N2           7.3600    54.0190    17.8360 nt         1 Y32      -0.606000
     16 O4           6.9670    52.9380    19.7870 o          1 Y32      -0.675100
     17 C9           1.7400    48.9720    12.8600 ca         1 Y32       0.107100
     18 C11          3.6370    47.5180    13.0520 ca         1 Y32      -0.102000
     19 C12          4.3530    48.5240    13.6880 ca         1 Y32      -0.108000
     20 O5           0.4710    49.1230    12.3920 os         1 Y32      -0.265200
     21 C14         -0.8950    51.0180    12.0410 ca         1 Y32      -0.127000
     22 C16         -2.1050    52.0030    13.8780 ca         1 Y32      -0.125000
     23 C18         -0.6640    50.1100    14.2670 ca         1 Y32      -0.127000
     24 H1           5.4970    49.5890    15.7260 hn         1 Y32       0.297500
     25 H2           6.2150    50.5190    17.9550 hc         1 Y32       0.029200
     26 H3           7.4980    49.9500    16.9070 hc         1 Y32       0.029200
     27 H4           8.4280    51.1000    18.8110 hc         1 Y32       0.061200
     28 H5           8.8330    51.9820    17.3500 hc         1 Y32       0.061200
     29 H6           2.0100    50.9710    13.6180 ha         1 Y32       0.145000
     30 H7           1.7690    46.9420    12.1610 ha         1 Y32       0.116000
     31 H8          -2.2160    52.6910    11.8480 ha         1 Y32       0.110500
     32 H9          -1.7960    51.0870    15.7940 ha         1 Y32       0.110500
     33 H10          5.7290    52.3820    16.4080 h1         1 Y32       0.061700
     34 H12          6.8580    54.8390    18.1370 hn         1 Y32       0.332500
     35 H13          7.5440    53.8940    16.8350 hn         1 Y32       0.332500
     36 H14          4.1020    46.5580    12.8720 ha         1 Y32       0.108000
     37 H15          5.3800    48.3420    13.9770 ha         1 Y32       0.132000
     38 H16         -0.6380    50.9890    10.9900 ha         1 Y32       0.127500
     39 H17         -2.7930    52.7480    14.2550 ha         1 Y32       0.109000
     40 H18         -0.2370    49.3770    14.9410 ha         1 Y32       0.127500
     41 O2           7.8180    53.1410    15.1930 o          1 Y32      -0.717500
     42 O3           7.6470    51.2000    14.1100 o          1 Y32      -0.717500
@<TRIPOS>BOND
     1     1    12 1   
     2     1    14 1   
     3     1    24 1   
     4     2     4 1   
     5     2    14 1   
     6     2    25 1   
     7     2    26 1   
     8     3    14 1   
     9     3    41 1   
    10     3    42 1   
    11     4     5 1   
    12     4    27 1   
    13     4    28 1   
    14     5    15 1   
    15     5    16 2   
    16     6    11 ar  
    17     6    17 ar  
    18     6    29 1   
    19     7    17 ar  
    20     7    18 ar  
    21     7    30 1   
    22     8    20 1   
    23     8    21 ar  
    24     8    23 ar  
    25     9    21 ar  
    26     9    22 ar  
    27     9    31 1   
    28    10    22 ar  
    29    10    23 ar  
    30    10    32 1   
    31    11    12 1   
    32    11    19 ar  
    33    12    13 2   
    34    14    33 1   
    35    15    34 1   
    36    15    35 1   
    37    17    20 1   
    38    18    19 ar  
    39    18    36 1   
    40    19    37 1   
    41    21    38 1   
    42    22    39 1   
    43    23    40 1   
@<TRIPOS>SUBSTRUCTURE
     1 Y32         1 TEMP              0 ****  ****    0 ROOT
