@<TRIPOS>MOLECULE
Y34
   17    18     1     0     0
SMALL
bcc


@<TRIPOS>ATOM
      1 C4         -18.9640    13.4740    25.8460 c6         1 Y34       0.098400
      2 C5         -20.9800    12.3970    25.5210 cc         1 Y34       0.024100
      3 C6         -21.9410    11.7400    24.8160 cd         1 Y34      -0.203100
      4 O1         -24.9900    12.9930    27.7090 o          1 Y34      -0.810300
      5 O          -23.3430    13.9920    28.8510 o          1 Y34      -0.810300
      6 C1         -22.8410    12.8660    26.8490 cd         1 Y34      -0.076700
      7 S          -23.4750    11.9030    25.5650 ss         1 Y34      -0.050800
      8 C2         -21.4940    13.0450    26.6900 cc         1 Y34       0.010100
      9 O3         -19.6750    12.4410    25.1750 os         1 Y34      -0.310900
     10 C3         -19.3120    13.4950    27.3160 c6         1 Y34       0.095400
     11 O2         -20.6960    13.7580    27.5110 os         1 Y34      -0.251900
     12 H1         -17.9020    13.2690    25.7160 h1         1 Y34       0.046200
     13 H2         -19.1860    14.4440    25.3880 h1         1 Y34       0.046200
     14 H3         -21.8100    11.1780    23.9040 h4         1 Y34       0.150000
     15 H5         -19.0400    12.5430    27.7860 h1         1 Y34       0.048200
     16 H6         -18.7640    14.2920    27.8180 h1         1 Y34       0.048200
     17 C          -23.8060    13.3330    27.9050 c          1 Y34       0.949200
@<TRIPOS>BOND
     1     1     9 1   
     2     1    10 1   
     3     1    12 1   
     4     1    13 1   
     5     2     3 2   
     6     2     8 1   
     7     2     9 1   
     8     3     7 1   
     9     3    14 1   
    10     4    17 1   
    11     5    17 1   
    12     6     7 1   
    13     6     8 2   
    14     6    17 1   
    15     8    11 1   
    16    10    11 1   
    17    10    15 1   
    18    10    16 1   
@<TRIPOS>SUBSTRUCTURE
     1 Y34         1 TEMP              0 ****  ****    0 ROOT
