@<TRIPOS>MOLECULE
Y34
   17    18     1     0     0
SMALL
No Charge or Current Charge


@<TRIPOS>ATOM
      1 C4         -18.9360    13.4760    25.8500 c6         1 Y34       0.121600
      2 C5         -21.0230    12.3750    25.5080 cc         1 Y34       0.024100
      3 C6         -21.9120    11.6940    24.7380 cd         1 Y34      -0.330000
      4 O1         -24.9450    13.0640    27.9030 o          1 Y34      -0.705000
      5 O          -23.2700    14.0330    28.8190 o          1 Y34      -0.705000
      6 C1         -22.9020    12.8430    26.8240 cd         1 Y34      -0.221600
      7 S          -23.5320    11.8390    25.4830 ss         1 Y34       0.239000
      8 C2         -21.5530    13.0200    26.6360 cc         1 Y34       0.010100
      9 O3         -19.7140    12.4790    25.1350 os         1 Y34      -0.334100
     10 C3         -19.3290    13.5210    27.3590 c6         1 Y34       0.118600
     11 O2         -20.7600    13.6980    27.5240 os         1 Y34      -0.275100
     12 H1         -17.8670    13.2520    25.7350 h1         1 Y34       0.046200
     13 H2         -19.1290    14.4590    25.3990 h1         1 Y34       0.046200
     14 H3         -21.7520    11.1460    23.8180 h4         1 Y34       0.132000
     15 H5         -19.0360    12.5750    27.8350 h1         1 Y34       0.048200
     16 H6         -18.8020    14.3380    27.8720 h1         1 Y34       0.048200
     17 C          -23.7570    13.3510    27.9290 c          1 Y34       0.738600
@<TRIPOS>BOND
     1     1     9 1   
     2     1    10 1   
     3     1    12 1   
     4     1    13 1   
     5     2     3 2   
     6     2     8 1   
     7     2     9 1   
     8     3     7 1   
     9     3    14 1   
    10     4    17 1   
    11     5    17 1   
    12     6     7 1   
    13     6     8 2   
    14     6    17 1   
    15     8    11 1   
    16    10    11 1   
    17    10    15 1   
    18    10    16 1   
@<TRIPOS>SUBSTRUCTURE
     1 Y34         1 TEMP              0 ****  ****    0 ROOT
