@<TRIPOS>MOLECULE
Y36
   69    73     1     0     0
SMALL
abcg2


@<TRIPOS>ATOM
      1 C1          10.1730    -7.7620     1.2990 ca         1 Y36       0.288000
      2 C2          11.3400    -7.0300     1.4150 ca         1 Y36      -0.145000
      3 C3          12.0310    -6.5610     0.2750 ca         1 Y36      -0.000800
      4 C4          11.5630    -6.8780    -0.9960 ca         1 Y36      -0.109000
      5 C5          10.4200    -7.6660    -1.1120 ca         1 Y36      -0.002200
      6 C6           9.6890    -8.0980     0.0240 ca         1 Y36      -0.121800
      7 C7           8.5590    -8.8310    -0.4560 cc         1 Y36      -0.259200
      8 C8           8.6410    -8.8300    -1.8220 cd         1 Y36      -0.122100
      9 C10         10.1240    -6.5180    -4.0740 ca         1 Y36       0.325800
     10 C11         10.5530    -6.1460    -5.3510 ca         1 Y36      -0.153500
     11 C12         10.3960    -4.8320    -5.7610 ca         1 Y36      -0.074500
     12 C13          9.8050    -3.9220    -4.8930 ca         1 Y36      -0.153000
     13 C14          9.3920    -4.3830    -3.6520 ca         1 Y36       0.344900
     14 C15         11.6670    -8.5570    -3.6700 ca         1 Y36       0.325800
     15 C16         12.9400   -10.4390    -3.3240 ca         1 Y36       0.344900
     16 C17         14.1210    -9.7770    -3.6390 ca         1 Y36      -0.153000
     17 C18         14.0410    -8.4350    -3.9790 ca         1 Y36      -0.074500
     18 C19         12.7970    -7.8150    -3.9950 ca         1 Y36      -0.153500
     19 C20          9.3530    -8.8150    -4.5700 c3         1 Y36      -0.096100
     20 C21          7.9360    -5.9230     2.7260 c3         1 Y36      -0.344400
     21 C22          6.6780    -6.4700     2.0730 c3         1 Y36      -0.064100
     22 N1           9.5440    -5.6490    -3.2490 nb         1 Y36      -0.652500
     23 N2           9.7590    -8.1310    -2.2350 na         1 Y36      -0.070700
     24 N3          11.7460    -9.8500    -3.3390 nb         1 Y36      -0.652500
     25 N4           9.4670    -8.2150     2.4520 nu         1 Y36      -0.871100
     26 C23         13.2550    -5.7450     0.4290 cc         1 Y36      -0.073200
     27 C24         14.2630    -5.7370    -0.5750 cc         1 Y36      -0.218000
     28 C25         15.3900    -4.9660    -0.4450 cd         1 Y36       0.054800
     29 C26         15.5990    -4.1690     0.7570 c          1 Y36       0.526200
     30 C27         13.4540    -4.9730     1.5370 cd         1 Y36      -0.077400
     31 C28         16.4540    -5.7690    -2.5060 c3         1 Y36       0.209100
     32 S1           8.8940    -7.1590     3.5960 s6         1 Y36       1.200100
     33 O1           8.0310    -7.9550     4.4400 o          1 Y36      -0.541000
     34 O2          10.0220    -6.4830     4.1950 o          1 Y36      -0.541000
     35 N5          16.3820    -4.8660    -1.3800 nu         1 Y36      -0.814200
     36 N6          14.5940    -4.2260     1.6940 n          1 Y36      -0.254000
     37 C29         14.7740    -3.4350     2.9120 c3         1 Y36       0.080300
     38 O3          16.6240    -3.4880     0.9440 o          1 Y36      -0.590000
     39 H1          11.7290    -6.8270     2.4000 ha         1 Y36       0.140000
     40 H2          12.0610    -6.4930    -1.8690 ha         1 Y36       0.120000
     41 H3           7.7820    -9.3020     0.1230 ha         1 Y36       0.200000
     42 H4           7.9770    -9.2840    -2.5330 h4         1 Y36       0.214000
     43 H5          11.0040    -6.8710    -6.0130 ha         1 Y36       0.128000
     44 H6          10.7270    -4.5260    -6.7450 ha         1 Y36       0.121500
     45 H7           9.6620    -2.8870    -5.1700 ha         1 Y36       0.129000
     46 H8           8.9160    -3.7110    -2.9460 h4         1 Y36       0.026600
     47 H9          12.9560   -11.4880    -3.0470 h4         1 Y36       0.026600
     48 H10         15.0680   -10.2990    -3.6100 ha         1 Y36       0.129000
     49 H11         14.9310    -7.8700    -4.2210 ha         1 Y36       0.121500
     50 H12         12.7260    -6.7660    -4.2360 ha         1 Y36       0.128000
     51 H13          9.3590    -9.8620    -4.2760 hc         1 Y36       0.058033
     52 H14          8.3310    -8.4370    -4.5800 hc         1 Y36       0.058033
     53 H15          9.7550    -8.7400    -5.5780 hc         1 Y36       0.058033
     54 H16          7.7170    -5.1740     3.4890 h1         1 Y36       0.101200
     55 H17          8.6260    -5.4840     2.0030 h1         1 Y36       0.101200
     56 H18          6.1540    -5.6510     1.5780 hc         1 Y36       0.047700
     57 H19          6.9110    -7.2220     1.3190 hc         1 Y36       0.047700
     58 H20          6.0090    -6.9090     2.8130 hc         1 Y36       0.047700
     59 H21          8.7760    -8.9330     2.2640 hn         1 Y36       0.494000
     60 H22         14.1440    -6.3620    -1.4490 ha         1 Y36       0.186000
     61 H23         12.7370    -4.8910     2.3380 h4         1 Y36       0.214000
     62 H24         17.3600    -5.5560    -3.0700 h1         1 Y36       0.031033
     63 H25         16.4680    -6.8220    -2.1970 h1         1 Y36       0.031033
     64 H26         15.5960    -5.6280    -3.1690 h1         1 Y36       0.031033
     65 H27         17.2440    -4.4790    -1.0280 hn         1 Y36       0.501000
     66 H28         13.9140    -3.5900     3.5560 h1         1 Y36       0.056367
     67 H29         15.6810    -3.7490     3.4270 h1         1 Y36       0.056367
     68 H30         14.8640    -2.3790     2.6630 h1         1 Y36       0.056367
     69 C9          10.2320    -7.9820    -3.6190 c3         1 Y36       0.023400
@<TRIPOS>BOND
     1     1     2 ar  
     2     1     6 ar  
     3     1    25 1   
     4     2     3 ar  
     5     2    39 1   
     6     3     4 ar  
     7     3    26 1   
     8     4     5 ar  
     9     4    40 1   
    10     5     6 ar  
    11     5    23 1   
    12     6     7 1   
    13     7     8 2   
    14     7    41 1   
    15     8    23 1   
    16     8    42 1   
    17     9    10 ar  
    18     9    22 ar  
    19     9    69 1   
    20    10    11 ar  
    21    10    43 1   
    22    11    12 ar  
    23    11    44 1   
    24    12    13 ar  
    25    12    45 1   
    26    13    22 ar  
    27    13    46 1   
    28    14    18 ar  
    29    14    24 ar  
    30    14    69 1   
    31    15    16 ar  
    32    15    24 ar  
    33    15    47 1   
    34    16    17 ar  
    35    16    48 1   
    36    17    18 ar  
    37    17    49 1   
    38    18    50 1   
    39    19    51 1   
    40    19    52 1   
    41    19    53 1   
    42    19    69 1   
    43    20    21 1   
    44    20    32 1   
    45    20    54 1   
    46    20    55 1   
    47    21    56 1   
    48    21    57 1   
    49    21    58 1   
    50    23    69 1   
    51    25    32 1   
    52    25    59 1   
    53    26    27 1   
    54    26    30 2   
    55    27    28 2   
    56    27    60 1   
    57    28    29 1   
    58    28    35 1   
    59    29    36 1   
    60    29    38 2   
    61    30    36 1   
    62    30    61 1   
    63    31    35 1   
    64    31    62 1   
    65    31    63 1   
    66    31    64 1   
    67    32    33 2   
    68    32    34 2   
    69    35    65 1   
    70    36    37 1   
    71    37    66 1   
    72    37    67 1   
    73    37    68 1   
@<TRIPOS>SUBSTRUCTURE
     1 Y36         1 TEMP              0 ****  ****    0 ROOT
