@<TRIPOS>MOLECULE
Y36
   69    73     1     0     0
SMALL
No Charge or Current Charge


@<TRIPOS>ATOM
      1 C1          10.0540    -7.8460     1.3080 ca         1 Y36       0.288000
      2 C2          11.2380    -7.0930     1.4490 ca         1 Y36      -0.145000
      3 C3          11.9590    -6.6270     0.3150 ca         1 Y36      -0.000800
      4 C4          11.4750    -6.9640    -0.9720 ca         1 Y36      -0.109000
      5 C5          10.3190    -7.7510    -1.1030 ca         1 Y36      -0.002200
      6 C6           9.6310    -8.1580     0.0080 ca         1 Y36      -0.121800
      7 C7           8.4680    -8.8660    -0.4470 cc         1 Y36      -0.259200
      8 C8           8.4980    -8.8590    -1.8340 cd         1 Y36      -0.122100
      9 C10         10.2220    -6.6170    -4.2100 ca         1 Y36       0.325800
     10 C11         10.6790    -6.3310    -5.5200 ca         1 Y36      -0.153500
     11 C12         10.6410    -5.0140    -6.0060 ca         1 Y36      -0.074500
     12 C13         10.1300    -4.0140    -5.1670 ca         1 Y36      -0.153000
     13 C14          9.6760    -4.3680    -3.8870 ca         1 Y36       0.344900
     14 C15         11.6580    -8.6930    -3.6960 ca         1 Y36       0.325800
     15 C16         12.9430   -10.6380    -3.4850 ca         1 Y36       0.344900
     16 C17         14.1410    -9.9390    -3.6950 ca         1 Y36      -0.153000
     17 C18         14.0900    -8.5560    -3.9120 ca         1 Y36      -0.074500
     18 C19         12.8350    -7.9280    -3.9100 ca         1 Y36      -0.153500
     19 C20          9.3210    -8.8960    -4.6470 c3         1 Y36      -0.096100
     20 C21          8.2950    -5.8580     3.1960 c3         1 Y36      -0.344400
     21 C22          7.0610    -5.9670     2.2670 c3         1 Y36      -0.064100
     22 N1           9.7130    -5.6350    -3.4190 nb         1 Y36      -0.652500
     23 N2           9.6700    -8.1820    -2.2690 na         1 Y36      -0.070700
     24 N3          11.7330   -10.0360    -3.4860 nb         1 Y36      -0.652500
     25 N4           9.3090    -8.2880     2.3960 nu         1 Y36      -0.871100
     26 C23         13.1920    -5.8180     0.4520 cc         1 Y36      -0.073200
     27 C24         14.1720    -5.6610    -0.5910 cc         1 Y36      -0.218000
     28 C25         15.2600    -4.8310    -0.4190 cd         1 Y36       0.054800
     29 C26         15.4440    -4.0470     0.8610 c          1 Y36       0.526200
     30 C27         13.3380    -5.0720     1.6120 cd         1 Y36      -0.077400
     31 C28         16.2620    -5.3660    -2.7280 c3         1 Y36       0.209100
     32 S1           8.9330    -7.4410     3.7710 s6         1 Y36       1.200100
     33 O1           7.8420    -8.1990     4.3860 o          1 Y36      -0.541000
     34 O2          10.1880    -7.2300     4.4940 o          1 Y36      -0.541000
     35 N5          16.2200    -4.6920    -1.4190 nu         1 Y36      -0.814200
     36 N6          14.4300    -4.2270     1.8310 n          1 Y36      -0.254000
     37 C29         14.5430    -3.4730     3.1010 c3         1 Y36       0.080300
     38 O3          16.4040    -3.3010     1.0510 o          1 Y36      -0.590000
     39 H1          11.6110    -6.9030     2.4470 ha         1 Y36       0.140000
     40 H2          11.9640    -6.5800    -1.8560 ha         1 Y36       0.120000
     41 H3           7.6880    -9.3260     0.1550 ha         1 Y36       0.200000
     42 H4           7.7860    -9.2990    -2.5250 h4         1 Y36       0.214000
     43 H5          11.0740    -7.1210    -6.1530 ha         1 Y36       0.128000
     44 H6          10.9970    -4.7760    -7.0070 ha         1 Y36       0.121500
     45 H7          10.0790    -2.9810    -5.4970 ha         1 Y36       0.129000
     46 H8           9.2680    -3.6130    -3.2160 h4         1 Y36       0.026600
     47 H9          12.9510   -11.7130    -3.3120 h4         1 Y36       0.026600
     48 H10         15.0890   -10.4690    -3.6860 ha         1 Y36       0.129000
     49 H11         15.0010    -7.9850    -4.0770 ha         1 Y36       0.121500
     50 H12         12.7950    -6.8540    -4.0610 ha         1 Y36       0.128000
     51 H13          9.1830    -9.9290    -4.3070 hc         1 Y36       0.058033
     52 H14          8.3290    -8.4350    -4.7390 hc         1 Y36       0.058033
     53 H15          9.7580    -8.9480    -5.6510 hc         1 Y36       0.058033
     54 H16          8.0470    -5.2910     4.1000 h1         1 Y36       0.101200
     55 H17          9.1240    -5.3640     2.6790 h1         1 Y36       0.101200
     56 H18          6.7120    -4.9670     1.9810 hc         1 Y36       0.047700
     57 H19          7.3020    -6.5130     1.3470 hc         1 Y36       0.047700
     58 H20          6.2320    -6.4820     2.7690 hc         1 Y36       0.047700
     59 H21          8.4580    -8.7790     2.1730 hn         1 Y36       0.494000
     60 H22         14.0610    -6.2290    -1.5070 ha         1 Y36       0.186000
     61 H23         12.6230    -5.0510     2.4270 h4         1 Y36       0.214000
     62 H24         17.1310    -5.0220    -3.3050 h1         1 Y36       0.031033
     63 H25         16.3420    -6.4530    -2.5950 h1         1 Y36       0.031033
     64 H26         15.3530    -5.1460    -3.3040 h1         1 Y36       0.031033
     65 H27         16.9910    -4.0520    -1.1940 hn         1 Y36       0.501000
     66 H28         13.7240    -3.7310     3.7850 h1         1 Y36       0.056367
     67 H29         15.4960    -3.7130     3.5900 h1         1 Y36       0.056367
     68 H30         14.5060    -2.3960     2.8950 h1         1 Y36       0.056367
     69 C9          10.2270    -8.0770    -3.6680 c3         1 Y36       0.023400
@<TRIPOS>BOND
     1     1     2 ar  
     2     1     6 ar  
     3     1    25 1   
     4     2     3 ar  
     5     2    39 1   
     6     3     4 ar  
     7     3    26 1   
     8     4     5 ar  
     9     4    40 1   
    10     5     6 ar  
    11     5    23 1   
    12     6     7 1   
    13     7     8 2   
    14     7    41 1   
    15     8    23 1   
    16     8    42 1   
    17     9    10 ar  
    18     9    22 ar  
    19     9    69 1   
    20    10    11 ar  
    21    10    43 1   
    22    11    12 ar  
    23    11    44 1   
    24    12    13 ar  
    25    12    45 1   
    26    13    22 ar  
    27    13    46 1   
    28    14    18 ar  
    29    14    24 ar  
    30    14    69 1   
    31    15    16 ar  
    32    15    24 ar  
    33    15    47 1   
    34    16    17 ar  
    35    16    48 1   
    36    17    18 ar  
    37    17    49 1   
    38    18    50 1   
    39    19    51 1   
    40    19    52 1   
    41    19    53 1   
    42    19    69 1   
    43    20    21 1   
    44    20    32 1   
    45    20    54 1   
    46    20    55 1   
    47    21    56 1   
    48    21    57 1   
    49    21    58 1   
    50    23    69 1   
    51    25    32 1   
    52    25    59 1   
    53    26    27 1   
    54    26    30 2   
    55    27    28 2   
    56    27    60 1   
    57    28    29 1   
    58    28    35 1   
    59    29    36 1   
    60    29    38 2   
    61    30    36 1   
    62    30    61 1   
    63    31    35 1   
    64    31    62 1   
    65    31    63 1   
    66    31    64 1   
    67    32    33 2   
    68    32    34 2   
    69    35    65 1   
    70    36    37 1   
    71    37    66 1   
    72    37    67 1   
    73    37    68 1   
@<TRIPOS>SUBSTRUCTURE
     1 Y36         1 TEMP              0 ****  ****    0 ROOT
