@<TRIPOS>MOLECULE
Y38
   61    63     1     0     0
SMALL
abcg2


@<TRIPOS>ATOM
      1 O15         -6.0660    -0.2820     8.8950 o          1 Y38      -0.583500
      2 S13         -7.0040     0.7720     8.5830 sy         1 Y38       1.209600
      3 O14         -6.4970     2.0340     8.0900 o          1 Y38      -0.583500
      4 N16         -8.0490     0.2060     7.4650 n3         1 Y38      -0.745500
      5 C17         -8.5990    -1.1590     7.6540 c3         1 Y38       0.088500
      6 C18         -8.7480    -1.8500     6.2820 c3         1 Y38      -0.048700
      7 C19         -9.5050    -3.1750     6.3830 c3         1 Y38      -0.080100
      8 C20         -7.3750    -2.0750     5.6450 c3         1 Y38      -0.080100
      9 C21         -9.9040    -1.1920     8.5040 c          1 Y38       0.695000
     10 O22        -10.7820    -0.3240     8.2790 o          1 Y38      -0.717000
     11 O23         -9.9690    -2.1190     9.3460 o          1 Y38      -0.717000
     12 C24         -8.7940     1.1960     6.6720 c3         1 Y38       0.200800
     13 C25         -8.0750     1.5410     5.3660 c3         1 Y38       0.085000
     14 N26         -8.7840     2.5680     4.6260 ns         1 Y38      -0.496900
     15 C27         -9.8160     2.2990     3.8000 c          1 Y38       0.600700
     16 O28        -10.2350     1.1530     3.6150 o          1 Y38      -0.596100
     17 C29        -10.4290     3.4750     3.1020 ca         1 Y38      -0.137600
     18 C34         -9.7010     4.6270     2.7940 ca         1 Y38      -0.073500
     19 C31        -10.3100     5.6840     2.1290 ca         1 Y38      -0.125000
     20 C32        -11.6530     5.6040     1.7730 ca         1 Y38      -0.102000
     21 C3B        -11.7710     3.3960     2.7280 ca         1 Y38      -0.073500
     22 C33        -12.3830     4.4580     2.0750 ca         1 Y38      -0.125000
     23 C10         -7.9390     1.1030    10.0510 ca         1 Y38      -0.281500
     24 C11         -8.0610     0.1180    11.0270 ca         1 Y38       0.005500
     25 C12         -8.8520     0.3530    12.1390 ca         1 Y38      -0.116000
     26 C7          -9.5400     1.5610    12.2960 cp         1 Y38       0.001000
     27 C8          -9.3980     2.5400    11.3030 ca         1 Y38      -0.116000
     28 C9          -8.6050     2.3190    10.1890 ca         1 Y38       0.005500
     29 C1         -10.3920     1.8000    13.4800 cp         1 Y38      -0.020000
     30 C2         -11.5870     2.5210    13.3690 ca         1 Y38      -0.096000
     31 C3         -12.3900     2.7420    14.4810 ca         1 Y38      -0.118000
     32 C4         -12.0120     2.2510    15.7270 ca         1 Y38      -0.119000
     33 C5         -10.8260     1.5340    15.8510 ca         1 Y38      -0.118000
     34 C6         -10.0250     1.3080    14.7390 ca         1 Y38      -0.096000
     35 H1          -7.8490    -1.7110     8.2140 h1         1 Y38       0.064700
     36 H2          -9.3320    -1.1900     5.6340 hc         1 Y38       0.056700
     37 H3         -10.5210    -3.0360     6.7520 hc         1 Y38       0.026200
     38 H4          -9.5610    -3.6420     5.3980 hc         1 Y38       0.026200
     39 H5          -8.9930    -3.8660     7.0570 hc         1 Y38       0.026200
     40 H6          -6.7870    -1.1590     5.6090 hc         1 Y38       0.026200
     41 H7          -6.8090    -2.8140     6.2200 hc         1 Y38       0.026200
     42 H8          -7.4820    -2.4520     4.6260 hc         1 Y38       0.026200
     43 H10         -8.9510     2.1080     7.2480 h1         1 Y38       0.073700
     44 H11         -9.7760     0.7810     6.4770 h1         1 Y38       0.073700
     45 H12         -7.9920     0.6570     4.7370 h1         1 Y38       0.065200
     46 H13         -7.0740     1.9080     5.5810 h1         1 Y38       0.065200
     47 H14         -8.5610     3.5290     4.8280 hn         1 Y38       0.309500
     48 H15         -8.6500     4.6970     3.0460 ha         1 Y38       0.126500
     49 H16         -9.7350     6.5680     1.8840 ha         1 Y38       0.110000
     50 H17        -12.1280     6.4300     1.2590 ha         1 Y38       0.105000
     51 H18        -12.3290     2.4990     2.9610 ha         1 Y38       0.126500
     52 H19        -13.4280     4.3910     1.8000 ha         1 Y38       0.110000
     53 H20         -7.5480    -0.8260    10.9110 ha         1 Y38       0.131500
     54 H21         -8.9540    -0.4240    12.8850 ha         1 Y38       0.107500
     55 H22         -9.8960     3.4940    11.4140 ha         1 Y38       0.107500
     56 H23         -8.4900     3.0920     9.4420 ha         1 Y38       0.131500
     57 H24        -11.9000     2.8920    12.4020 ha         1 Y38       0.118500
     58 H25        -13.3150     3.2940    14.3720 ha         1 Y38       0.104000
     59 H26        -12.6370     2.4250    16.5940 ha         1 Y38       0.101000
     60 H27        -10.5200     1.1530    16.8180 ha         1 Y38       0.104000
     61 H28         -9.0970     0.7630    14.8510 ha         1 Y38       0.118500
@<TRIPOS>BOND
     1     1     2 2   
     2     2     3 2   
     3     2     4 1   
     4     2    23 1   
     5     4     5 1   
     6     4    12 1   
     7     5     6 1   
     8     5     9 1   
     9     5    35 1   
    10     6     7 1   
    11     6     8 1   
    12     6    36 1   
    13     7    37 1   
    14     7    38 1   
    15     7    39 1   
    16     8    40 1   
    17     8    41 1   
    18     8    42 1   
    19     9    10 1   
    20     9    11 1   
    21    12    13 1   
    22    12    43 1   
    23    12    44 1   
    24    13    14 1   
    25    13    45 1   
    26    13    46 1   
    27    14    15 1   
    28    14    47 1   
    29    15    16 2   
    30    15    17 1   
    31    17    18 ar  
    32    17    21 ar  
    33    18    19 ar  
    34    18    48 1   
    35    19    20 ar  
    36    19    49 1   
    37    20    22 ar  
    38    20    50 1   
    39    21    22 ar  
    40    21    51 1   
    41    22    52 1   
    42    23    24 ar  
    43    23    28 ar  
    44    24    25 ar  
    45    24    53 1   
    46    25    26 ar  
    47    25    54 1   
    48    26    27 ar  
    49    26    29 1   
    50    27    28 ar  
    51    27    55 1   
    52    28    56 1   
    53    29    30 ar  
    54    29    34 ar  
    55    30    31 ar  
    56    30    57 1   
    57    31    32 ar  
    58    31    58 1   
    59    32    33 ar  
    60    32    59 1   
    61    33    34 ar  
    62    33    60 1   
    63    34    61 1   
@<TRIPOS>SUBSTRUCTURE
     1 Y38         1 TEMP              0 ****  ****    0 ROOT
