@<TRIPOS>MOLECULE
Y38
   61    63     1     0     0
SMALL
No Charge or Current Charge


@<TRIPOS>ATOM
      1 O15         -7.7060     3.3770     8.4930 o          1 Y38      -0.583500
      2 S13         -9.1150     3.0550     8.7520 sy         1 Y38       1.209600
      3 O14        -10.1650     4.0780     8.7130 o          1 Y38      -0.583500
      4 N16         -9.5360     1.8410     7.6150 n3         1 Y38      -0.745500
      5 C17        -10.6620     0.9150     8.0420 c3         1 Y38       0.088500
      6 C18        -10.6710    -0.4520     7.2720 c3         1 Y38      -0.048700
      7 C19        -11.6900    -1.4520     7.8760 c3         1 Y38      -0.080100
      8 C20         -9.2660    -1.1060     7.2120 c3         1 Y38      -0.080100
      9 C21        -12.1110     1.5510     8.0960 c          1 Y38       0.695000
     10 O22        -12.6770     1.8310     7.0450 o          1 Y38      -0.717000
     11 O23        -12.6310     1.7250     9.1910 o          1 Y38      -0.717000
     12 C24         -9.6800     2.3450     6.2160 c3         1 Y38       0.200800
     13 C25         -8.3960     2.9140     5.5550 c3         1 Y38       0.085000
     14 N26         -8.5680     3.2190     4.1260 ns         1 Y38      -0.496900
     15 C27         -8.6520     2.2750     3.1230 c          1 Y38       0.600700
     16 O28         -8.5670     1.0800     3.3720 o          1 Y38      -0.596100
     17 C29         -8.8520     2.7920     1.7120 ca         1 Y38      -0.137600
     18 C34         -8.9540     4.1760     1.4200 ca         1 Y38      -0.073500
     19 C31         -9.1390     4.6160     0.0970 ca         1 Y38      -0.125000
     20 C32         -9.2260     3.6890    -0.9520 ca         1 Y38      -0.102000
     21 C3B         -8.9420     1.8710     0.6410 ca         1 Y38      -0.073500
     22 C33         -9.1270     2.3170    -0.6790 ca         1 Y38      -0.125000
     23 C10         -9.1520     2.1940    10.3350 ca         1 Y38      -0.281500
     24 C11         -8.1760     1.2220    10.6180 ca         1 Y38       0.005500
     25 C12         -8.2030     0.5330    11.8420 ca         1 Y38      -0.116000
     26 C7          -9.2030     0.7960    12.8120 cp         1 Y38       0.001000
     27 C8         -10.1760     1.7800    12.5050 ca         1 Y38      -0.116000
     28 C9         -10.1550     2.4730    11.2820 ca         1 Y38       0.005500
     29 C1          -9.2310     0.0570    14.1150 cp         1 Y38      -0.020000
     30 C2         -10.4590    -0.2780    14.7420 ca         1 Y38      -0.096000
     31 C3         -10.4860    -0.9720    15.9640 ca         1 Y38      -0.118000
     32 C4          -9.2850    -1.3450    16.5880 ca         1 Y38      -0.119000
     33 C5          -8.0580    -1.0240    15.9880 ca         1 Y38      -0.118000
     34 C6          -8.0310    -0.3310    14.7650 ca         1 Y38      -0.096000
     35 H1         -10.4740     0.6030     9.0750 h1         1 Y38       0.064700
     36 H2         -10.9910    -0.2710     6.2400 hc         1 Y38       0.056700
     37 H3         -12.7130    -1.0610     7.8220 hc         1 Y38       0.026200
     38 H4         -11.6730    -2.4010     7.3270 hc         1 Y38       0.026200
     39 H5         -11.4560    -1.6610     8.9270 hc         1 Y38       0.026200
     40 H6          -8.5570    -0.4770     6.6620 hc         1 Y38       0.026200
     41 H7          -8.8700    -1.2690     8.2220 hc         1 Y38       0.026200
     42 H8          -9.3100    -2.0750     6.7010 hc         1 Y38       0.026200
     43 H10        -10.4580     3.1180     6.1690 h1         1 Y38       0.073700
     44 H11        -10.0210     1.5320     5.5650 h1         1 Y38       0.073700
     45 H12         -7.5810     2.1860     5.6660 h1         1 Y38       0.065200
     46 H13         -8.0940     3.8400     6.0590 h1         1 Y38       0.065200
     47 H14         -8.6380     4.1890     3.8470 hn         1 Y38       0.309500
     48 H15         -8.8920     4.9260     2.2040 ha         1 Y38       0.126500
     49 H16         -9.2160     5.6810    -0.1140 ha         1 Y38       0.110000
     50 H17         -9.3690     4.0330    -1.9740 ha         1 Y38       0.105000
     51 H18         -8.8680     0.8020     0.8300 ha         1 Y38       0.126500
     52 H19         -9.1940     1.5950    -1.4900 ha         1 Y38       0.110000
     53 H20         -7.4020     0.9900     9.8870 ha         1 Y38       0.131500
     54 H21         -7.4490    -0.2250    12.0310 ha         1 Y38       0.107500
     55 H22        -10.9530     2.0190    13.2260 ha         1 Y38       0.107500
     56 H23        -10.9210     3.2190    11.0790 ha         1 Y38       0.131500
     57 H24        -11.4010    -0.0110    14.2700 ha         1 Y38       0.118500
     58 H25        -11.4390    -1.2230    16.4260 ha         1 Y38       0.104000
     59 H26         -9.3060    -1.8820    17.5340 ha         1 Y38       0.101000
     60 H27         -7.1250    -1.3090    16.4700 ha         1 Y38       0.104000
     61 H28         -7.0700    -0.0810    14.3240 ha         1 Y38       0.118500
@<TRIPOS>BOND
     1     1     2 2   
     2     2     3 2   
     3     2     4 1   
     4     2    23 1   
     5     4     5 1   
     6     4    12 1   
     7     5     6 1   
     8     5     9 1   
     9     5    35 1   
    10     6     7 1   
    11     6     8 1   
    12     6    36 1   
    13     7    37 1   
    14     7    38 1   
    15     7    39 1   
    16     8    40 1   
    17     8    41 1   
    18     8    42 1   
    19     9    10 1   
    20     9    11 1   
    21    12    13 1   
    22    12    43 1   
    23    12    44 1   
    24    13    14 1   
    25    13    45 1   
    26    13    46 1   
    27    14    15 1   
    28    14    47 1   
    29    15    16 2   
    30    15    17 1   
    31    17    18 ar  
    32    17    21 ar  
    33    18    19 ar  
    34    18    48 1   
    35    19    20 ar  
    36    19    49 1   
    37    20    22 ar  
    38    20    50 1   
    39    21    22 ar  
    40    21    51 1   
    41    22    52 1   
    42    23    24 ar  
    43    23    28 ar  
    44    24    25 ar  
    45    24    53 1   
    46    25    26 ar  
    47    25    54 1   
    48    26    27 ar  
    49    26    29 1   
    50    27    28 ar  
    51    27    55 1   
    52    28    56 1   
    53    29    30 ar  
    54    29    34 ar  
    55    30    31 ar  
    56    30    57 1   
    57    31    32 ar  
    58    31    58 1   
    59    32    33 ar  
    60    32    59 1   
    61    33    34 ar  
    62    33    60 1   
    63    34    61 1   
@<TRIPOS>SUBSTRUCTURE
     1 Y38         1 TEMP              0 ****  ****    0 ROOT
