@<TRIPOS>MOLECULE
Y39
   38    38     1     0     0
SMALL
bcc


@<TRIPOS>ATOM
      1 OAB         -6.5250    -0.4300     0.9450 o          1 Y39      -0.843300
      2 CAM         -5.6930    -0.0080     0.1130 c          1 Y39       0.944600
      3 OAC         -5.8440     0.9680    -0.6510 o          1 Y39      -0.843300
      4 CAO         -4.3800    -0.7560     0.0340 cx         1 Y39      -0.208700
      5 CAL         -3.6760    -0.8710    -1.2940 cx         1 Y39      -0.135400
      6 CAN         -3.1090     0.0030    -0.2310 cx         1 Y39      -0.136700
      7 CAK         -1.8290    -0.3880     0.4610 c3         1 Y39      -0.039400
      8 CAJ         -0.5890     0.1240    -0.2620 c3         1 Y39      -0.074400
      9 CAI          0.7120    -0.3400     0.3800 c3         1 Y39      -0.075400
     10 CAH          1.9560     0.2420    -0.2800 c3         1 Y39      -0.074400
     11 CAG          3.2550    -0.2690     0.3310 c3         1 Y39      -0.074400
     12 CAF          4.5010     0.3330    -0.3060 c3         1 Y39      -0.074400
     13 CAE          5.7980    -0.1910     0.2960 c3         1 Y39      -0.075400
     14 CAD          7.0460     0.4170    -0.3320 c3         1 Y39      -0.075400
     15 CAA          8.3360    -0.1150     0.2740 c3         1 Y39      -0.087100
     16 H2          -4.2870    -1.6090     0.6990 hc         1 Y39       0.052700
     17 H3          -3.1620    -1.8010    -1.5130 hc         1 Y39       0.052200
     18 H4          -4.1520    -0.4090    -2.1480 hc         1 Y39       0.052200
     19 H5          -3.2400     1.0710    -0.3830 hc         1 Y39       0.088700
     20 H6          -1.8300    -0.0080     1.4890 hc         1 Y39       0.027700
     21 H7          -1.7790    -1.4790     0.5420 hc         1 Y39       0.027700
     22 H8          -0.6180    -0.2020    -1.3070 hc         1 Y39       0.035700
     23 H9          -0.6130     1.2190    -0.2880 hc         1 Y39       0.035700
     24 H10          0.7100    -0.0740     1.4430 hc         1 Y39       0.031700
     25 H11          0.7610    -1.4340     0.3450 hc         1 Y39       0.031700
     26 H12          1.9430     0.0100    -1.3510 hc         1 Y39       0.035200
     27 H13          1.9250     1.3350    -0.2090 hc         1 Y39       0.035200
     28 H14          3.2590    -0.0560     1.4060 hc         1 Y39       0.034700
     29 H15          3.2920    -1.3600     0.2410 hc         1 Y39       0.034700
     30 H16          4.4920     0.1310    -1.3830 hc         1 Y39       0.035700
     31 H17          4.4680     1.4240    -0.2050 hc         1 Y39       0.035700
     32 H18          5.8040     0.0040     1.3750 hc         1 Y39       0.035700
     33 H19          5.8340    -1.2810     0.1890 hc         1 Y39       0.035700
     34 H20          7.0390     0.2220    -1.4090 hc         1 Y39       0.035700
     35 H21          7.0110     1.5050    -0.2230 hc         1 Y39       0.035700
     36 H22          9.2140     0.3340    -0.1910 hc         1 Y39       0.028367
     37 H23          8.3860     0.0940     1.3440 hc         1 Y39       0.028367
     38 H24          8.4150    -1.1970     0.1500 hc         1 Y39       0.028367
@<TRIPOS>BOND
     1     1     2 1   
     2     2     3 1   
     3     2     4 1   
     4     4     5 1   
     5     4     6 1   
     6     4    16 1   
     7     5     6 1   
     8     5    17 1   
     9     5    18 1   
    10     6     7 1   
    11     6    19 1   
    12     7     8 1   
    13     7    20 1   
    14     7    21 1   
    15     8     9 1   
    16     8    22 1   
    17     8    23 1   
    18     9    10 1   
    19     9    24 1   
    20     9    25 1   
    21    10    11 1   
    22    10    26 1   
    23    10    27 1   
    24    11    12 1   
    25    11    28 1   
    26    11    29 1   
    27    12    13 1   
    28    12    30 1   
    29    12    31 1   
    30    13    14 1   
    31    13    32 1   
    32    13    33 1   
    33    14    15 1   
    34    14    34 1   
    35    14    35 1   
    36    15    36 1   
    37    15    37 1   
    38    15    38 1   
@<TRIPOS>SUBSTRUCTURE
     1 Y39         1 TEMP              0 ****  ****    0 ROOT
