@<TRIPOS>MOLECULE
Y39
   38    38     1     0     0
SMALL
No Charge or Current Charge


@<TRIPOS>ATOM
      1 OAB         -5.8750     0.6350     1.1160 o          1 Y39      -0.738000
      2 CAM         -5.7680    -0.0780     0.1300 c          1 Y39       0.734000
      3 OAC         -6.6850    -0.3050    -0.6450 o          1 Y39      -0.738000
      4 CAO         -4.4460    -0.7880    -0.1010 cx         1 Y39      -0.208700
      5 CAL         -3.7300    -0.6040    -1.4280 cx         1 Y39      -0.135400
      6 CAN         -3.1690     0.0290    -0.1780 cx         1 Y39      -0.136700
      7 CAK         -1.8730    -0.4770     0.4470 c3         1 Y39      -0.039400
      8 CAJ         -0.6150     0.1230    -0.2180 c3         1 Y39      -0.074400
      9 CAI          0.7030    -0.3840     0.4090 c3         1 Y39      -0.075400
     10 CAH          1.9600     0.2170    -0.2580 c3         1 Y39      -0.074400
     11 CAG          3.2770    -0.2900     0.3690 c3         1 Y39      -0.074400
     12 CAF          4.5340     0.3100    -0.2980 c3         1 Y39      -0.074400
     13 CAE          5.8510    -0.1970     0.3290 c3         1 Y39      -0.075400
     14 CAD          7.1080     0.4030    -0.3380 c3         1 Y39      -0.075400
     15 CAA          8.4230    -0.1020     0.2870 c3         1 Y39      -0.087100
     16 H2          -4.3740    -1.7700     0.3560 hc         1 Y39       0.052700
     17 H3          -3.2090    -1.4630    -1.8450 hc         1 Y39       0.052200
     18 H4          -4.1800     0.0550    -2.1670 hc         1 Y39       0.052200
     19 H5          -3.2740     1.1090    -0.0920 hc         1 Y39       0.088700
     20 H6          -1.8660    -0.2290     1.5150 hc         1 Y39       0.027700
     21 H7          -1.8240    -1.5710     0.3800 hc         1 Y39       0.027700
     22 H8          -0.6220    -0.1230    -1.2870 hc         1 Y39       0.035700
     23 H9          -0.6540     1.2170    -0.1400 hc         1 Y39       0.035700
     24 H10          0.7100    -0.1380     1.4780 hc         1 Y39       0.031700
     25 H11          0.7410    -1.4770     0.3310 hc         1 Y39       0.031700
     26 H12          1.9520    -0.0290    -1.3270 hc         1 Y39       0.035200
     27 H13          1.9210     1.3100    -0.1800 hc         1 Y39       0.035200
     28 H14          3.2850    -0.0450     1.4380 hc         1 Y39       0.034700
     29 H15          3.3160    -1.3840     0.2910 hc         1 Y39       0.034700
     30 H16          4.5260     0.0650    -1.3680 hc         1 Y39       0.035700
     31 H17          4.4960     1.4040    -0.2200 hc         1 Y39       0.035700
     32 H18          5.8590     0.0490     1.3980 hc         1 Y39       0.035700
     33 H19          5.8900    -1.2900     0.2510 hc         1 Y39       0.035700
     34 H20          7.1050     0.1580    -1.4080 hc         1 Y39       0.035700
     35 H21          7.0750     1.4970    -0.2600 hc         1 Y39       0.035700
     36 H22          9.2850     0.3510    -0.2180 hc         1 Y39       0.028367
     37 H23          8.4720     0.1600     1.3510 hc         1 Y39       0.028367
     38 H24          8.5040    -1.1920     0.1930 hc         1 Y39       0.028367
@<TRIPOS>BOND
     1     1     2 1   
     2     2     3 1   
     3     2     4 1   
     4     4     5 1   
     5     4     6 1   
     6     4    16 1   
     7     5     6 1   
     8     5    17 1   
     9     5    18 1   
    10     6     7 1   
    11     6    19 1   
    12     7     8 1   
    13     7    20 1   
    14     7    21 1   
    15     8     9 1   
    16     8    22 1   
    17     8    23 1   
    18     9    10 1   
    19     9    24 1   
    20     9    25 1   
    21    10    11 1   
    22    10    26 1   
    23    10    27 1   
    24    11    12 1   
    25    11    28 1   
    26    11    29 1   
    27    12    13 1   
    28    12    30 1   
    29    12    31 1   
    30    13    14 1   
    31    13    32 1   
    32    13    33 1   
    33    14    15 1   
    34    14    34 1   
    35    14    35 1   
    36    15    36 1   
    37    15    37 1   
    38    15    38 1   
@<TRIPOS>SUBSTRUCTURE
     1 Y39         1 TEMP              0 ****  ****    0 ROOT
