@<TRIPOS>MOLECULE
Y3A
   57    58     1     0     0
SMALL
bcc


@<TRIPOS>ATOM
      1 C23          4.5500     0.1620     1.3360 c          1 Y3A       0.758100
      2 O41          4.5340     0.0140     2.5420 o          1 Y3A      -0.601000
      3 O5           5.6680     0.2540     0.6060 os         1 Y3A      -0.430900
      4 C16          6.9120     0.1330     1.3050 c3         1 Y3A       0.208700
      5 C20          7.9960     0.1580     0.2710 ca         1 Y3A      -0.101300
      6 C19          8.2750    -0.9830    -0.4780 ca         1 Y3A      -0.101500
      7 C18          9.2610    -0.9620    -1.4540 ca         1 Y3A      -0.133500
      8 C17          9.9800     0.2040    -1.6900 ca         1 Y3A      -0.116000
      9 C22          9.7090     1.3450    -0.9470 ca         1 Y3A      -0.133500
     10 C21          8.7190     1.3200     0.0270 ca         1 Y3A      -0.101500
     11 N31          3.4600     0.2540     0.5620 ns         1 Y3A      -0.564900
     12 C14          2.1370     0.1730     1.1090 c3         1 Y3A       0.041000
     13 C13          1.1240     0.2120    -0.0220 c          1 Y3A       0.656100
     14 O31          1.4530     0.3880    -1.1860 o          1 Y3A      -0.612100
     15 N3          -0.1440     0.0430     0.3620 ns         1 Y3A      -0.560900
     16 CA3         -1.2320     0.0520    -0.5760 c3         1 Y3A       0.017000
     17 C3          -2.5300    -0.2850     0.1350 c          1 Y3A       0.662100
     18 O3          -2.6080    -0.3390     1.3490 o          1 Y3A      -0.586100
     19 C4          -5.5080    -1.9330    -0.8870 c3         1 Y3A       0.138100
     20 O4          -4.7390    -3.0320    -0.4830 oh         1 Y3A      -0.572800
     21 CA4         -4.9410    -0.6260    -0.2980 c3         1 Y3A       0.064700
     22 N4          -3.5560    -0.5120    -0.7060 ns         1 Y3A      -0.574900
     23 CB4         -5.7200     0.6270    -0.7230 c3         1 Y3A      -0.048100
     24 CG4         -5.0930     1.8760    -0.1710 ca         1 Y3A      -0.088300
     25 CD1         -4.1860     2.6160    -0.9240 ca         1 Y3A      -0.122500
     26 CD2         -5.3700     2.2880     1.1310 ca         1 Y3A      -0.122500
     27 CE1         -3.5640     3.7380    -0.3900 ca         1 Y3A      -0.123000
     28 CE2         -4.7550     3.4100     1.6680 ca         1 Y3A      -0.123000
     29 CZ4         -3.8470     4.1380     0.9090 ca         1 Y3A      -0.121000
     30 H21          7.0310     0.9570     2.0120 h1         1 Y3A       0.056200
     31 H22          6.9350    -0.8020     1.8690 h1         1 Y3A       0.056200
     32 H25          7.7230    -1.8970    -0.2930 ha         1 Y3A       0.133000
     33 H24          9.4720    -1.8540    -2.0280 ha         1 Y3A       0.132000
     34 H23         10.7520     0.2210    -2.4490 ha         1 Y3A       0.131000
     35 H27         10.2680     2.2550    -1.1240 ha         1 Y3A       0.132000
     36 H26          8.5110     2.2130     0.6060 ha         1 Y3A       0.133000
     37 H20          3.5470     0.3700    -0.4370 hn         1 Y3A       0.357500
     38 H18          2.0000    -0.7470     1.6830 h1         1 Y3A       0.069700
     39 H19          1.9320     1.0040     1.7930 h1         1 Y3A       0.069700
     40 HN3         -0.3720    -0.0930     1.3360 hn         1 Y3A       0.348500
     41 HA3         -1.3410     1.0360    -1.0460 h1         1 Y3A       0.069700
     42 HA3A        -1.0590    -0.6650    -1.3810 h1         1 Y3A       0.069700
     43 HO4         -3.8370    -2.8970    -0.7930 ho         1 Y3A       0.414000
     44 HA4         -4.9540    -0.7050     0.7910 h1         1 Y3A       0.100700
     45 HN4         -3.3880    -0.3740    -1.6930 hn         1 Y3A       0.310500
     46 HB4         -5.7610     0.6750    -1.8150 hc         1 Y3A       0.054700
     47 HB4A        -6.7510     0.5470    -0.3730 hc         1 Y3A       0.054700
     48 HD1         -3.9650     2.3180    -1.9430 ha         1 Y3A       0.126500
     49 HD2         -6.0750     1.7250     1.7320 ha         1 Y3A       0.126500
     50 HE1         -2.8620     4.3000    -0.9910 ha         1 Y3A       0.134000
     51 HE2         -4.9850     3.7160     2.6800 ha         1 Y3A       0.134000
     52 HZ4         -3.3660     5.0130     1.3270 ha         1 Y3A       0.134000
     53 H4          -5.5220    -1.8350    -1.9830 h1         1 Y3A       0.038700
     54 C15         -6.9250    -2.1700    -0.4120 c3         1 Y3A       0.050000
     55 CL1         -7.5870    -3.6860    -1.1110 cl         1 Y3A      -0.183400
     56 H15         -6.9720    -2.2660     0.6720 h1         1 Y3A       0.073200
     57 H15A        -7.5900    -1.3710    -0.7260 h1         1 Y3A       0.073200
@<TRIPOS>BOND
     1     1     2 2   
     2     1     3 1   
     3     1    11 1   
     4     3     4 1   
     5     4     5 1   
     6     4    30 1   
     7     4    31 1   
     8     5     6 ar  
     9     5    10 ar  
    10     6     7 ar  
    11     6    32 1   
    12     7     8 ar  
    13     7    33 1   
    14     8     9 ar  
    15     8    34 1   
    16     9    10 ar  
    17     9    35 1   
    18    10    36 1   
    19    11    12 1   
    20    11    37 1   
    21    12    13 1   
    22    12    38 1   
    23    12    39 1   
    24    13    14 2   
    25    13    15 1   
    26    15    16 1   
    27    15    40 1   
    28    16    17 1   
    29    16    41 1   
    30    16    42 1   
    31    17    18 2   
    32    17    22 1   
    33    19    20 1   
    34    19    21 1   
    35    19    53 1   
    36    19    54 1   
    37    20    43 1   
    38    21    22 1   
    39    21    23 1   
    40    21    44 1   
    41    22    45 1   
    42    23    24 1   
    43    23    46 1   
    44    23    47 1   
    45    24    25 ar  
    46    24    26 ar  
    47    25    27 ar  
    48    25    48 1   
    49    26    28 ar  
    50    26    49 1   
    51    27    29 ar  
    52    27    50 1   
    53    28    29 ar  
    54    28    51 1   
    55    29    52 1   
    56    54    55 1   
    57    54    56 1   
    58    54    57 1   
@<TRIPOS>SUBSTRUCTURE
     1 Y3A         1 TEMP              0 ****  ****    0 ROOT
