@<TRIPOS>MOLECULE
Y3A
   57    58     1     0     0
SMALL
No Charge or Current Charge


@<TRIPOS>ATOM
      1 C23          4.6100    -0.0230     1.4480 c          1 Y3A       0.642100
      2 O41          4.5760    -0.0990     2.6660 o          1 Y3A      -0.552000
      3 O5           5.7250     0.1290     0.6860 os         1 Y3A      -0.454100
      4 C16          6.9870     0.2080     1.3670 c3         1 Y3A       0.231900
      5 C20          8.0860     0.3750     0.3250 ca         1 Y3A      -0.101300
      6 C19          8.7130    -0.7560    -0.2350 ca         1 Y3A      -0.083500
      7 C18          9.7270    -0.6010    -1.1960 ca         1 Y3A      -0.115500
      8 C17         10.1200     0.6850    -1.6040 ca         1 Y3A      -0.098000
      9 C22          9.4970     1.8160    -1.0510 ca         1 Y3A      -0.115500
     10 C21          8.4820     1.6630    -0.0890 ca         1 Y3A      -0.083500
     11 N31          3.5200    -0.0780     0.6330 ns         1 Y3A      -0.497900
     12 C14          2.1260    -0.2380     1.0980 c3         1 Y3A       0.041000
     13 C13          1.1190    -0.2620    -0.0760 c          1 Y3A       0.589100
     14 O31          1.4530    -0.1600    -1.2510 o          1 Y3A      -0.612100
     15 N3          -0.2010    -0.4090     0.2890 ns         1 Y3A      -0.493900
     16 CA3         -1.3360    -0.4520    -0.6610 c3         1 Y3A       0.017000
     17 C3          -2.6940    -0.6010     0.0600 c          1 Y3A       0.595100
     18 O3          -2.7970    -0.6900     1.2770 o          1 Y3A      -0.586100
     19 C4          -6.0270    -1.7720    -0.9130 c3         1 Y3A       0.161300
     20 O4          -5.3040    -2.9970    -0.7000 oh         1 Y3A      -0.635000
     21 CA4         -5.1990    -0.5850    -0.3300 c3         1 Y3A       0.064700
     22 N4          -3.7910    -0.6360    -0.7790 ns         1 Y3A      -0.507900
     23 CB4         -5.8000     0.8100    -0.6510 c3         1 Y3A      -0.048100
     24 CG4         -4.9210     1.9610    -0.1680 ca         1 Y3A      -0.088300
     25 CD1         -4.1650     2.7170    -1.0860 ca         1 Y3A      -0.104500
     26 CD2         -4.8440     2.2640     1.2050 ca         1 Y3A      -0.104500
     27 CE1         -3.3400     3.7620    -0.6350 ca         1 Y3A      -0.105000
     28 CE2         -4.0200     3.3100     1.6560 ca         1 Y3A      -0.105000
     29 CZ4         -3.2670     4.0590     0.7360 ca         1 Y3A      -0.103000
     30 H21          7.0040     1.0620     2.0580 h1         1 Y3A       0.056200
     31 H22          7.1720    -0.7030     1.9520 h1         1 Y3A       0.056200
     32 H25          8.4130    -1.7550     0.0740 ha         1 Y3A       0.115000
     33 H24         10.2080    -1.4780    -1.6240 ha         1 Y3A       0.114000
     34 H23         10.9050     0.8050    -2.3470 ha         1 Y3A       0.113000
     35 H27          9.7990     2.8130    -1.3670 ha         1 Y3A       0.114000
     36 H26          8.0030     2.5440     0.3320 ha         1 Y3A       0.115000
     37 H20          3.7010    -0.0010    -0.3620 hn         1 Y3A       0.357500
     38 H18          2.0300    -1.1780     1.6560 h1         1 Y3A       0.069700
     39 H19          1.8620     0.5940     1.7630 h1         1 Y3A       0.069700
     40 HN3         -0.4030    -0.4860     1.2820 hn         1 Y3A       0.348500
     41 HA3         -1.3590     0.4740    -1.2490 h1         1 Y3A       0.069700
     42 HA3A        -1.2120    -1.3010    -1.3460 h1         1 Y3A       0.069700
     43 HO4         -4.3530    -2.7730    -0.8000 ho         1 Y3A       0.453000
     44 HA4         -5.2140    -0.6930     0.7630 h1         1 Y3A       0.100700
     45 HN4         -3.6020    -0.5310    -1.7710 hn         1 Y3A       0.310500
     46 HB4         -5.9610     0.8890    -1.7330 hc         1 Y3A       0.054700
     47 HB4A        -6.7900     0.8990    -0.1890 hc         1 Y3A       0.054700
     48 HD1         -4.2100     2.4920    -2.1500 ha         1 Y3A       0.108500
     49 HD2         -5.4190     1.6860     1.9250 ha         1 Y3A       0.108500
     50 HE1         -2.7570     4.3410    -1.3480 ha         1 Y3A       0.116000
     51 HE2         -3.9640     3.5380     2.7180 ha         1 Y3A       0.116000
     52 HZ4         -2.6290     4.8680     1.0850 ha         1 Y3A       0.116000
     53 H4          -6.1340    -1.6020    -1.9930 h1         1 Y3A       0.038700
     54 C15         -7.4520    -1.8900    -0.3090 c3         1 Y3A       0.126600
     55 Cl1         -8.4080    -3.2600    -1.0430 cl         1 Y3A      -0.260000
     56 H15         -7.3960    -2.0630     0.7730 h1         1 Y3A       0.073200
     57 H15A        -8.0250    -0.9730    -0.4930 h1         1 Y3A       0.073200
@<TRIPOS>BOND
     1     1     2 2   
     2     1     3 1   
     3     1    11 1   
     4     3     4 1   
     5     4     5 1   
     6     4    30 1   
     7     4    31 1   
     8     5     6 ar  
     9     5    10 ar  
    10     6     7 ar  
    11     6    32 1   
    12     7     8 ar  
    13     7    33 1   
    14     8     9 ar  
    15     8    34 1   
    16     9    10 ar  
    17     9    35 1   
    18    10    36 1   
    19    11    12 1   
    20    11    37 1   
    21    12    13 1   
    22    12    38 1   
    23    12    39 1   
    24    13    14 2   
    25    13    15 1   
    26    15    16 1   
    27    15    40 1   
    28    16    17 1   
    29    16    41 1   
    30    16    42 1   
    31    17    18 2   
    32    17    22 1   
    33    19    20 1   
    34    19    21 1   
    35    19    53 1   
    36    19    54 1   
    37    20    43 1   
    38    21    22 1   
    39    21    23 1   
    40    21    44 1   
    41    22    45 1   
    42    23    24 1   
    43    23    46 1   
    44    23    47 1   
    45    24    25 ar  
    46    24    26 ar  
    47    25    27 ar  
    48    25    48 1   
    49    26    28 ar  
    50    26    49 1   
    51    27    29 ar  
    52    27    50 1   
    53    28    29 ar  
    54    28    51 1   
    55    29    52 1   
    56    54    55 1   
    57    54    56 1   
    58    54    57 1   
@<TRIPOS>SUBSTRUCTURE
     1 Y3A         1 TEMP              0 ****  ****    0 ROOT
