@<TRIPOS>MOLECULE
Y3C
   52    54     1     0     0
SMALL
abcg2


@<TRIPOS>ATOM
      1 N1          10.9590    -7.1520    28.0840 n          1 Y3C      -0.392800
      2 N3           9.0600    -3.2770    21.6970 nt         1 Y3C      -0.606000
      3 C4           9.8650   -10.4020    28.7740 ca         1 Y3C      -0.103500
      4 C5          10.4660   -11.4600    29.4460 ca         1 Y3C      -0.112000
      5 C6          11.5310   -12.1360    28.8690 ca         1 Y3C      -0.121000
      6 C7           9.6960    -8.8440    26.7920 c3         1 Y3C      -0.052100
      7 C8          10.6410    -7.6300    26.7640 c3         1 Y3C       0.035700
      8 C10          9.9700    -6.7680    29.0770 c5         1 Y3C       0.142300
      9 C13         12.2340    -7.1400    28.5620 c          1 Y3C       0.578600
     10 C15         11.4440    -5.9360    32.5050 ca         1 Y3C      -0.097000
     11 C17         13.1490    -6.5470    30.9060 ca         1 Y3C      -0.042000
     12 C20          8.2710    -6.2140    23.4190 c          1 Y3C       0.721000
     13 C22         10.1350    -3.8610    21.1450 c          1 Y3C       0.595100
     14 C1          11.9910   -11.7480    27.6160 ca         1 Y3C      -0.112000
     15 C2          11.3880   -10.6910    26.9500 ca         1 Y3C      -0.103500
     16 C3          10.3180   -10.0030    27.5200 ca         1 Y3C      -0.065300
     17 C9          10.0490    -6.5380    25.8740 c          1 Y3C       0.597100
     18 C11         10.8070    -6.5120    30.2870 ca         1 Y3C      -0.072300
     19 C12         12.1380    -6.7210    29.9740 ca         1 Y3C      -0.156600
     20 C14         10.4390    -6.1130    31.5610 ca         1 Y3C      -0.105000
     21 C16         12.7850    -6.1500    32.1840 ca         1 Y3C      -0.135000
     22 O1          13.2440    -7.4220    27.9400 o          1 Y3C      -0.558000
     23 O2           9.2800    -5.6890    26.2990 o          1 Y3C      -0.607100
     24 N2          10.4250    -6.6170    24.5930 ns         1 Y3C      -0.459900
     25 C18          9.7740    -5.8500    23.5530 c3         1 Y3C      -0.039300
     26 C19         10.5350    -6.1120    22.2470 c3         1 Y3C      -0.063400
     27 O5          11.1310    -3.2490    20.7780 o          1 Y3C      -0.672100
     28 H1           9.1010    -2.2980    21.9350 hn         1 Y3C       0.332000
     29 H2           8.3630    -3.8670    22.1610 hn         1 Y3C       0.332000
     30 H3           9.0280    -9.8860    29.2300 ha         1 Y3C       0.111000
     31 H4          10.0980   -11.7560    30.4200 ha         1 Y3C       0.103500
     32 H5          12.0000   -12.9610    29.3900 ha         1 Y3C       0.101000
     33 H6           8.7410    -8.5720    27.2460 hc         1 Y3C       0.080200
     34 H7           9.4800    -9.1210    25.7580 hc         1 Y3C       0.080200
     35 H8          11.5880    -7.9530    26.3280 h1         1 Y3C       0.080700
     36 H9           9.4200    -5.8790    28.7670 h1         1 Y3C       0.080200
     37 H10          9.2370    -7.5610    29.2490 h1         1 Y3C       0.080200
     38 H11         11.1820    -5.6270    33.5090 ha         1 Y3C       0.105000
     39 H12         14.1860    -6.7150    30.6460 ha         1 Y3C       0.129000
     40 H13          9.0030    -5.6640    20.7840 hc         1 Y3C       0.061200
     41 H14         10.6420    -5.6720    20.1600 hc         1 Y3C       0.061200
     42 H15         12.8180   -12.2720    27.1550 ha         1 Y3C       0.103500
     43 H16         11.7520   -10.4000    25.9710 ha         1 Y3C       0.111000
     44 H17          9.4020    -5.9440    31.8210 ha         1 Y3C       0.117000
     45 H18         13.5440    -6.0030    32.9410 ha         1 Y3C       0.107000
     46 H19         11.0000    -7.3970    24.3130 hn         1 Y3C       0.295500
     47 H20          9.8600    -4.7910    23.8110 h1         1 Y3C       0.062700
     48 H21         10.4980    -7.1840    22.0300 hc         1 Y3C       0.031700
     49 H22         11.5880    -5.8630    22.4040 hc         1 Y3C       0.031700
     50 O3           7.5330    -5.3170    22.9410 o          1 Y3C      -0.721000
     51 C21         10.0280    -5.3690    21.0090 c3         1 Y3C      -0.150400
     52 O4           7.9260    -7.3540    23.7560 o          1 Y3C      -0.721000
@<TRIPOS>BOND
     1     1     7 1   
     2     1     8 1   
     3     1     9 1   
     4     2    13 1   
     5     2    28 1   
     6     2    29 1   
     7     3     4 ar  
     8     3    16 ar  
     9     3    30 1   
    10     4     5 ar  
    11     4    31 1   
    12     5    14 ar  
    13     5    32 1   
    14     6     7 1   
    15     6    16 1   
    16     6    33 1   
    17     6    34 1   
    18     7    17 1   
    19     7    35 1   
    20     8    18 1   
    21     8    36 1   
    22     8    37 1   
    23     9    19 1   
    24     9    22 2   
    25    10    20 ar  
    26    10    21 ar  
    27    10    38 1   
    28    11    19 ar  
    29    11    21 ar  
    30    11    39 1   
    31    12    25 1   
    32    12    50 1   
    33    12    52 1   
    34    13    27 2   
    35    13    51 1   
    36    14    15 ar  
    37    14    42 1   
    38    15    16 ar  
    39    15    43 1   
    40    17    23 2   
    41    17    24 1   
    42    18    19 ar  
    43    18    20 ar  
    44    20    44 1   
    45    21    45 1   
    46    24    25 1   
    47    24    46 1   
    48    25    26 1   
    49    25    47 1   
    50    26    48 1   
    51    26    49 1   
    52    26    51 1   
    53    40    51 1   
    54    41    51 1   
@<TRIPOS>SUBSTRUCTURE
     1 Y3C         1 TEMP              0 ****  ****    0 ROOT
