@<TRIPOS>MOLECULE
Y3C
   52    54     1     0     0
SMALL
No Charge or Current Charge


@<TRIPOS>ATOM
      1 N1          11.1360    -7.2410    27.9530 n          1 Y3C      -0.392800
      2 N3           8.0740    -3.7360    21.6230 nt         1 Y3C      -0.606000
      3 C4           9.4980   -10.1370    29.0100 ca         1 Y3C      -0.103500
      4 C5           9.9370   -11.1650    29.8610 ca         1 Y3C      -0.112000
      5 C6          10.9390   -12.0520    29.4340 ca         1 Y3C      -0.121000
      6 C7           9.5980    -8.8600    26.8060 c3         1 Y3C      -0.052100
      7 C8          10.6740    -7.7530    26.6280 c3         1 Y3C       0.035700
      8 C10         10.2890    -6.4840    28.9360 c5         1 Y3C       0.142300
      9 C13         12.4100    -7.5550    28.4580 c          1 Y3C       0.578600
     10 C15         12.0920    -5.7990    32.3010 ca         1 Y3C      -0.097000
     11 C17         13.5240    -7.0360    30.7470 ca         1 Y3C      -0.042000
     12 C20          8.9640    -7.1010    22.0640 c          1 Y3C       0.721000
     13 C22          9.3470    -3.3730    21.8680 c          1 Y3C       0.595100
     14 C1          11.5010   -11.9100    28.1540 ca         1 Y3C      -0.112000
     15 C2          11.0620   -10.8810    27.3030 ca         1 Y3C      -0.103500
     16 C3          10.0590    -9.9870    27.7260 ca         1 Y3C      -0.065300
     17 C9          10.1910    -6.6530    25.6370 c          1 Y3C       0.597100
     18 C11         11.2620    -6.3880    30.1030 ca         1 Y3C      -0.072300
     19 C12         12.4710    -6.9970    29.8210 ca         1 Y3C      -0.156600
     20 C14         11.0510    -5.7770    31.3500 ca         1 Y3C      -0.105000
     21 C16         13.3230    -6.4260    32.0020 ca         1 Y3C      -0.135000
     22 O1          13.2970    -8.1670    27.8790 o          1 Y3C      -0.558000
     23 O2           9.9750    -5.4920    25.9640 o          1 Y3C      -0.607100
     24 N2          10.0220    -7.0810    24.3340 ns         1 Y3C      -0.459900
     25 C18          9.5970    -6.2290    23.1970 c3         1 Y3C      -0.039300
     26 C19         10.7730    -5.3500    22.6850 c3         1 Y3C      -0.063400
     27 O5           9.5920    -2.2820    22.3540 o          1 Y3C      -0.672100
     28 H1           7.3250    -3.1020    21.8530 hn         1 Y3C       0.332000
     29 H2           7.8750    -4.6770    21.3020 hn         1 Y3C       0.332000
     30 H3           8.7230    -9.4550    29.3530 ha         1 Y3C       0.111000
     31 H4           9.5020   -11.2740    30.8520 ha         1 Y3C       0.103500
     32 H5          11.2800   -12.8480    30.0930 ha         1 Y3C       0.101000
     33 H6           8.6770    -8.4040    27.1900 hc         1 Y3C       0.080200
     34 H7           9.3370    -9.2800    25.8270 hc         1 Y3C       0.080200
     35 H8          11.5320    -8.2200    26.1280 h1         1 Y3C       0.080700
     36 H9          10.0100    -5.4890    28.5660 h1         1 Y3C       0.080200
     37 H10          9.3810    -7.0360    29.2110 h1         1 Y3C       0.080200
     38 H11         11.9460    -5.3310    33.2720 ha         1 Y3C       0.105000
     39 H12         14.4660    -7.5230    30.5040 ha         1 Y3C       0.129000
     40 H13         10.0780    -5.0200    20.6750 hc         1 Y3C       0.061200
     41 H14         11.3410    -3.8670    21.2160 hc         1 Y3C       0.061200
     42 H15         12.2780   -12.5950    27.8220 ha         1 Y3C       0.103500
     43 H16         11.5060   -10.7760    26.3160 ha         1 Y3C       0.111000
     44 H17         10.1020    -5.2960    31.5780 ha         1 Y3C       0.117000
     45 H18         14.1200    -6.4380    32.7420 ha         1 Y3C       0.107000
     46 H19         10.2200    -8.0560    24.1390 hn         1 Y3C       0.295500
     47 H20          8.8020    -5.5680    23.5640 h1         1 Y3C       0.062700
     48 H21         11.5930    -6.0080    22.3710 hc         1 Y3C       0.031700
     49 H22         11.1620    -4.7480    23.5160 hc         1 Y3C       0.031700
     50 O3           7.9540    -6.6800    21.5160 o          1 Y3C      -0.721000
     51 C21         10.4290    -4.3990    21.5080 c3         1 Y3C      -0.150400
     52 O4           9.4420    -8.2050    21.8370 o          1 Y3C      -0.721000
@<TRIPOS>BOND
     1     1     7 1   
     2     1     8 1   
     3     1     9 1   
     4     2    13 1   
     5     2    28 1   
     6     2    29 1   
     7     3     4 ar  
     8     3    16 ar  
     9     3    30 1   
    10     4     5 ar  
    11     4    31 1   
    12     5    14 ar  
    13     5    32 1   
    14     6     7 1   
    15     6    16 1   
    16     6    33 1   
    17     6    34 1   
    18     7    17 1   
    19     7    35 1   
    20     8    18 1   
    21     8    36 1   
    22     8    37 1   
    23     9    19 1   
    24     9    22 2   
    25    10    20 ar  
    26    10    21 ar  
    27    10    38 1   
    28    11    19 ar  
    29    11    21 ar  
    30    11    39 1   
    31    12    25 1   
    32    12    50 1   
    33    12    52 1   
    34    13    27 2   
    35    13    51 1   
    36    14    15 ar  
    37    14    42 1   
    38    15    16 ar  
    39    15    43 1   
    40    17    23 2   
    41    17    24 1   
    42    18    19 ar  
    43    18    20 ar  
    44    20    44 1   
    45    21    45 1   
    46    24    25 1   
    47    24    46 1   
    48    25    26 1   
    49    25    47 1   
    50    26    48 1   
    51    26    49 1   
    52    26    51 1   
    53    40    51 1   
    54    41    51 1   
@<TRIPOS>SUBSTRUCTURE
     1 Y3C         1 TEMP              0 ****  ****    0 ROOT
