@<TRIPOS>MOLECULE
Y3E
   19    20     1     0     0
SMALL
abcg2


@<TRIPOS>ATOM
      1 C10         15.0810     6.3760    12.7770 ca         1 Y3E      -0.106500
      2 N12         16.0030     2.3420    15.3520 ns         1 Y3E      -0.410600
      3 C02         15.5730     1.4410    16.2620 cs         1 Y3E       0.303000
      4 C04         14.1840     3.5130    16.0170 cc         1 Y3E      -0.224400
      5 C05         15.2540     3.5020    15.1890 cd         1 Y3E       0.057400
      6 C06         15.6640     4.5320    14.2300 ca         1 Y3E      -0.052800
      7 C07         17.0060     4.6930    13.8690 ca         1 Y3E      -0.089000
      8 C08         17.3780     5.6830    12.9690 ca         1 Y3E      -0.106500
      9 C09         16.4190     6.5290    12.4210 ca         1 Y3E      -0.093000
     10 C11         14.7040     5.3840    13.6700 ca         1 Y3E      -0.089000
     11 S03         14.1210     2.0770    16.9850 ss         1 Y3E       0.028800
     12 H101        14.3280     7.0240    12.3490 ha         1 Y3E       0.120500
     13 H121        16.8170     2.1330    14.7890 hn         1 Y3E       0.471000
     14 H041        13.4520     4.2950    16.1260 h4         1 Y3E       0.236000
     15 H071        17.7710     4.0630    14.3040 ha         1 Y3E       0.117000
     16 H081        18.4200     5.7970    12.7010 ha         1 Y3E       0.120500
     17 H091        16.7100     7.3000    11.7190 ha         1 Y3E       0.120000
     18 H111        13.6600     5.2550    13.9220 ha         1 Y3E       0.117000
     19 S01         16.2870    -0.0270    16.6260 s          1 Y3E      -0.518400
@<TRIPOS>BOND
     1     1     9 ar  
     2     1    10 ar  
     3     1    12 1   
     4     2     3 1   
     5     2     5 1   
     6     2    13 1   
     7     3    11 1   
     8     3    19 2   
     9     4     5 2   
    10     4    11 1   
    11     4    14 1   
    12     5     6 1   
    13     6     7 ar  
    14     6    10 ar  
    15     7     8 ar  
    16     7    15 1   
    17     8     9 ar  
    18     8    16 1   
    19     9    17 1   
    20    10    18 1   
@<TRIPOS>SUBSTRUCTURE
     1 Y3E         1 TEMP              0 ****  ****    0 ROOT
