@<TRIPOS>MOLECULE
Y3E
   19    20     1     0     0
SMALL
No Charge or Current Charge


@<TRIPOS>ATOM
      1 C10         15.1310     6.5410    12.9590 ca         1 Y3E      -0.106500
      2 N12         16.1310     2.4330    15.5250 ns         1 Y3E      -0.410600
      3 C02         15.6310     1.5070    16.3930 cs         1 Y3E       0.303000
      4 C04         13.9950     3.3290    15.7320 cc         1 Y3E      -0.224400
      5 C05         15.2440     3.4290    15.1610 cd         1 Y3E       0.057400
      6 C06         15.6550     4.5020    14.2210 ca         1 Y3E      -0.052800
      7 C07         16.9610     4.5390    13.6730 ca         1 Y3E      -0.089000
      8 C08         17.3420     5.5590    12.7840 ca         1 Y3E      -0.106500
      9 C09         16.4280     6.5610    12.4260 ca         1 Y3E      -0.093000
     10 C11         14.7480     5.5220    13.8480 ca         1 Y3E      -0.089000
     11 S03         13.9510     1.9170    16.7690 ss         1 Y3E       0.028800
     12 H101        14.4200     7.3170    12.6840 ha         1 Y3E       0.120500
     13 H121        17.0890     2.3570    15.1960 hn         1 Y3E       0.471000
     14 H041        13.1160     3.9540    15.6330 h4         1 Y3E       0.236000
     15 H071        17.6970     3.7810    13.9250 ha         1 Y3E       0.117000
     16 H081        18.3490     5.5720    12.3720 ha         1 Y3E       0.120500
     17 H091        16.7240     7.3510    11.7380 ha         1 Y3E       0.120000
     18 H111        13.7360     5.5390    14.2410 ha         1 Y3E       0.117000
     19 S01         16.4830     0.2010    16.9950 s          1 Y3E      -0.518400
@<TRIPOS>BOND
     1     1     9 ar  
     2     1    10 ar  
     3     1    12 1   
     4     2     3 1   
     5     2     5 1   
     6     2    13 1   
     7     3    11 1   
     8     3    19 2   
     9     4     5 2   
    10     4    11 1   
    11     4    14 1   
    12     5     6 1   
    13     6     7 ar  
    14     6    10 ar  
    15     7     8 ar  
    16     7    15 1   
    17     8     9 ar  
    18     8    16 1   
    19     9    17 1   
    20    10    18 1   
@<TRIPOS>SUBSTRUCTURE
     1 Y3E         1 TEMP              0 ****  ****    0 ROOT
