@<TRIPOS>MOLECULE
Y3G
   14    14     1     0     0
SMALL
bcc


@<TRIPOS>ATOM
      1 C10         20.7100    39.2030    47.6170 c1         1 Y3G      -0.118500
      2 C01         23.0400    41.8150    48.2730 c          1 Y3G       0.738700
      3 C03         24.4560    42.1390    50.2790 c          1 Y3G       0.826500
      4 C05         22.9730    40.2550    50.1240 cc         1 Y3G       0.067600
      5 C06         22.5120    40.6090    48.9000 cd         1 Y3G      -0.126900
      6 C09         21.5380    39.8460    48.2100 ch         1 Y3G      -0.151300
      7 N02         23.9810    42.4830    49.0390 ns         1 Y3G      -0.605500
      8 N04         23.9000    40.9840    50.7800 ns         1 Y3G      -0.467100
      9 O07         25.2830    42.7840    50.8800 o          1 Y3G      -0.617500
     10 O08         22.7110    42.2310    47.1830 o          1 Y3G      -0.580500
     11 H1          19.9800    38.6280    47.0960 ha         1 Y3G       0.173500
     12 H2          22.6210    39.3710    50.6370 h4         1 Y3G       0.163000
     13 H4          24.3690    43.3300    48.6400 hn         1 Y3G       0.346500
     14 H3          24.2160    40.6820    51.6910 hn         1 Y3G       0.351500
@<TRIPOS>BOND
     1     1     6 3   
     2     1    11 1   
     3     2     5 1   
     4     2     7 1   
     5     2    10 2   
     6     3     7 1   
     7     3     8 1   
     8     3     9 2   
     9     4     5 2   
    10     4     8 1   
    11     4    12 1   
    12     5     6 1   
    13     7    13 1   
    14     8    14 1   
@<TRIPOS>SUBSTRUCTURE
     1 Y3G         1 TEMP              0 ****  ****    0 ROOT
