@<TRIPOS>MOLECULE
Y3G
   14    14     1     0     0
SMALL
No Charge or Current Charge


@<TRIPOS>ATOM
      1 C10         20.6920    39.1980    47.5840 c1         1 Y3G      -0.206000
      2 C01         23.0510    41.8310    48.2780 c          1 Y3G       0.596200
      3 C03         24.4500    42.1380    50.2680 c          1 Y3G       0.617000
      4 C05         22.9510    40.2050    50.1530 cc         1 Y3G       0.017600
      5 C06         22.5020    40.5890    48.9080 cd         1 Y3G      -0.126900
      6 C09         21.5260    39.8450    48.1860 ch         1 Y3G      -0.151300
      7 N02         23.9810    42.4800    49.0410 ns         1 Y3G      -0.471500
      8 N04         23.9070    40.9970    50.7790 ns         1 Y3G      -0.513600
      9 O07         25.2850    42.7910    50.8620 o          1 Y3G      -0.542000
     10 O08         22.7270    42.2670    47.1820 o          1 Y3G      -0.505000
     11 H1          19.9560    38.6280    47.0520 ha         1 Y3G       0.261000
     12 H2          22.6330    39.3290    50.7140 h4         1 Y3G       0.213000
     13 H4          24.3680    43.3200    48.6430 hn         1 Y3G       0.346500
     14 H3          24.2610    40.7430    51.6980 hn         1 Y3G       0.465000
@<TRIPOS>BOND
     1     1     6 3   
     2     1    11 1   
     3     2     5 1   
     4     2     7 1   
     5     2    10 2   
     6     3     7 1   
     7     3     8 1   
     8     3     9 2   
     9     4     5 2   
    10     4     8 1   
    11     4    12 1   
    12     5     6 1   
    13     7    13 1   
    14     8    14 1   
@<TRIPOS>SUBSTRUCTURE
     1 Y3G         1 TEMP              0 ****  ****    0 ROOT
