@<TRIPOS>MOLECULE
Y3I
   45    48     1     0     0
SMALL
No Charge or Current Charge


@<TRIPOS>ATOM
      1 C1          53.2070    16.5880    37.4410 cg         1 Y3I       0.323000
      2 C4          51.7860    13.8120    35.3540 ca         1 Y3I      -0.121000
      3 C5          52.0860    15.1030    35.8220 ca         1 Y3I      -0.070000
      4 C3          52.2910    12.6860    36.0270 ca         1 Y3I      -0.060000
      5 C7          53.3840    14.1370    37.6440 ca         1 Y3I      -0.061000
      6 C11         55.4930     8.1940    36.9720 ca         1 Y3I       0.173900
      7 C6          52.8900    15.2690    36.9660 ca         1 Y3I      -0.024000
      8 C13         54.3190    10.5330    37.3790 ca         1 Y3I      -0.214800
      9 C8          53.0870    12.8430    37.1760 ca         1 Y3I      -0.021800
     10 C9          53.5940    11.6670    37.8760 cc         1 Y3I      -0.042400
     11 C12         54.3300     9.5810    38.3730 ca         1 Y3I       0.146500
     12 C14         54.9640    10.2800    36.1540 ca         1 Y3I       0.415900
     13 C10         53.2040    11.3600    39.1690 cd         1 Y3I       0.106900
     14 C17         55.6110    13.2220    32.9860 c6         1 Y3I      -0.076400
     15 C15         55.9040    12.4570    35.4070 c6         1 Y3I       0.207800
     16 C2          55.1350    10.8120    33.7020 c6         1 Y3I       0.203800
     17 C16         55.5210    13.6400    34.4770 c6         1 Y3I      -0.069700
     18 C18         54.7380    11.9700    32.7250 c6         1 Y3I       0.154500
     19 C19         56.3770    14.8990    34.7760 c3         1 Y3I      -0.086100
     20 N1          53.4750    17.6560    37.8280 n1         1 Y3I      -0.452000
     21 N4          54.9180     8.3870    38.1830 nb         1 Y3I      -0.212000
     22 N3          55.5510     9.0810    35.9520 nb         1 Y3I      -0.278000
     23 N2          53.6710    10.0710    39.4930 na         1 Y3I      -0.313400
     24 N5          55.0840    11.2450    35.1330 nh         1 Y3I      -0.758300
     25 N6          54.8310    11.5720    31.2970 n8         1 Y3I      -0.997200
     26 Cl1         52.2100    12.2970    40.2370 cl         1 Y3I      -0.119000
     27 H1          51.1700    13.6840    34.4670 ha         1 Y3I       0.121000
     28 H2          51.6980    15.9720    35.2920 ha         1 Y3I       0.126000
     29 H3          52.0640    11.6890    35.6580 ha         1 Y3I       0.128000
     30 H4          54.0050    14.2590    38.5290 ha         1 Y3I       0.130000
     31 H5          55.9680     7.2290    36.8070 h5         1 Y3I       0.050100
     32 H6          56.6570    13.0110    32.7220 hc         1 Y3I       0.049700
     33 H7          55.2810    14.0510    32.3450 hc         1 Y3I       0.049700
     34 H8          56.9700    12.2200    35.2700 h1         1 Y3I       0.048700
     35 H9          55.7800    12.7740    36.4530 h1         1 Y3I       0.048700
     36 H10         54.4460     9.9690    33.5390 h1         1 Y3I       0.061200
     37 H11         56.1480    10.4620    33.4520 h1         1 Y3I       0.061200
     38 H12         54.4840    13.9250    34.6900 hc         1 Y3I       0.059700
     39 H13         53.6880    12.2370    32.9140 h1         1 Y3I       0.024700
     40 H14         56.2660    15.2110    35.8220 hc         1 Y3I       0.038033
     41 H15         57.4420    14.7100    34.5930 hc         1 Y3I       0.038033
     42 H16         56.0730    15.7430    34.1470 hc         1 Y3I       0.038033
     43 H17         53.5180     9.5790    40.3650 hn         1 Y3I       0.377000
     44 H18         54.1140    10.8610    31.1040 hn         1 Y3I       0.397000
     45 H19         54.5380    12.3660    30.7160 hn         1 Y3I       0.397000
@<TRIPOS>BOND
     1     1     7 1   
     2     1    20 3   
     3     2     3 ar  
     4     2     4 ar  
     5     2    27 1   
     6     3     7 ar  
     7     3    28 1   
     8     4     9 ar  
     9     4    29 1   
    10     5     7 ar  
    11     5     9 ar  
    12     5    30 1   
    13     6    21 ar  
    14     6    22 ar  
    15     6    31 1   
    16     8    10 1   
    17     8    11 ar  
    18     8    12 ar  
    19     9    10 1   
    20    10    13 2   
    21    11    21 ar  
    22    11    23 1   
    23    12    22 ar  
    24    12    24 1   
    25    13    23 1   
    26    13    26 1   
    27    14    17 1   
    28    14    18 1   
    29    14    32 1   
    30    14    33 1   
    31    15    17 1   
    32    15    24 1   
    33    15    34 1   
    34    15    35 1   
    35    16    18 1   
    36    16    24 1   
    37    16    36 1   
    38    16    37 1   
    39    17    19 1   
    40    17    38 1   
    41    18    25 1   
    42    18    39 1   
    43    19    40 1   
    44    19    41 1   
    45    19    42 1   
    46    23    43 1   
    47    25    44 1   
    48    25    45 1   
@<TRIPOS>SUBSTRUCTURE
     1 Y3I         1 TEMP              0 ****  ****    0 ROOT
