@<TRIPOS>MOLECULE
Y3I
   45    48     1     0     0
SMALL
abcg2


@<TRIPOS>ATOM
      1 C1          53.2580    16.6530    37.5750 cg         1 Y3I       0.323000
      2 C4          51.7190    13.9730    35.5400 ca         1 Y3I      -0.121000
      3 C5          52.0410    15.2370    36.0050 ca         1 Y3I      -0.070000
      4 C3          52.2510    12.8470    36.1510 ca         1 Y3I      -0.060000
      5 C7          53.4280    14.2270    37.7220 ca         1 Y3I      -0.061000
      6 C11         55.2100     8.1790    36.8040 ca         1 Y3I       0.173900
      7 C6          52.9010    15.3560    37.0960 ca         1 Y3I      -0.024000
      8 C13         54.2930    10.6330    37.2820 ca         1 Y3I      -0.214800
      9 C8          53.1040    12.9610    37.2500 ca         1 Y3I      -0.021800
     10 C9          53.6230    11.7480    37.8900 cc         1 Y3I      -0.042400
     11 C12         54.3720     9.6170    38.2450 ca         1 Y3I       0.146500
     12 C14         54.8620    10.3170    36.0300 ca         1 Y3I       0.415900
     13 C10         53.3940    11.3620    39.1800 cd         1 Y3I       0.106900
     14 C17         55.5980    13.1490    32.9690 c6         1 Y3I      -0.076400
     15 C15         55.7070    12.4900    35.3640 c6         1 Y3I       0.207800
     16 C2          55.3180    10.7800    33.6950 c6         1 Y3I       0.203800
     17 C16         55.3420    13.6090    34.4000 c6         1 Y3I      -0.069700
     18 C18         54.8940    11.8330    32.6760 c6         1 Y3I       0.154500
     19 C19         56.1160    14.8750    34.7360 c3         1 Y3I      -0.086100
     20 N1          53.5460    17.6990    37.9620 n1         1 Y3I      -0.452000
     21 N4          54.8340     8.3860    38.0500 nb         1 Y3I      -0.212000
     22 N3          55.2570     9.0640    35.8110 nb         1 Y3I      -0.278000
     23 N2          53.8470    10.0930    39.4020 na         1 Y3I      -0.313400
     24 N5          55.0150    11.2440    35.0370 nh         1 Y3I      -0.758300
     25 N6          55.2480    11.3590    31.3480 n8         1 Y3I      -0.997200
     26 CL1         52.5860    12.2110    40.4080 cl         1 Y3I      -0.119000
     27 H1          51.0530    13.8650    34.6950 ha         1 Y3I       0.121000
     28 H2          51.6360    16.1200    35.5310 ha         1 Y3I       0.126000
     29 H3          51.9910    11.8640    35.7810 ha         1 Y3I       0.128000
     30 H4          54.1030    14.3410    38.5590 ha         1 Y3I       0.130000
     31 H5          55.5460     7.1770    36.5590 h5         1 Y3I       0.050100
     32 H6          56.6760    13.0120    32.8170 hc         1 Y3I       0.049700
     33 H7          55.2700    13.9180    32.2630 hc         1 Y3I       0.049700
     34 H8          56.7930    12.3150    35.3120 h1         1 Y3I       0.048700
     35 H9          55.4910    12.7890    36.3870 h1         1 Y3I       0.048700
     36 H10         54.7870     9.8460    33.5090 h1         1 Y3I       0.061200
     37 H11         56.3910    10.5760    33.5730 h1         1 Y3I       0.061200
     38 H12         54.2730    13.8140    34.5140 hc         1 Y3I       0.059700
     39 H13         53.8110    11.9920    32.7990 h1         1 Y3I       0.024700
     40 H14         55.9100    15.2110    35.7540 hc         1 Y3I       0.038033
     41 H15         57.1930    14.7140    34.6480 hc         1 Y3I       0.038033
     42 H16         55.8460    15.6870    34.0590 hc         1 Y3I       0.038033
     43 H17         53.7520     9.5750    40.2630 hn         1 Y3I       0.377000
     44 H18         54.7000    10.5380    31.1200 hn         1 Y3I       0.397000
     45 H19         54.9850    12.0580    30.6630 hn         1 Y3I       0.397000
@<TRIPOS>BOND
     1     1     7 1   
     2     1    20 3   
     3     2     3 ar  
     4     2     4 ar  
     5     2    27 1   
     6     3     7 ar  
     7     3    28 1   
     8     4     9 ar  
     9     4    29 1   
    10     5     7 ar  
    11     5     9 ar  
    12     5    30 1   
    13     6    21 ar  
    14     6    22 ar  
    15     6    31 1   
    16     8    10 1   
    17     8    11 ar  
    18     8    12 ar  
    19     9    10 1   
    20    10    13 2   
    21    11    21 ar  
    22    11    23 1   
    23    12    22 ar  
    24    12    24 1   
    25    13    23 1   
    26    13    26 1   
    27    14    17 1   
    28    14    18 1   
    29    14    32 1   
    30    14    33 1   
    31    15    17 1   
    32    15    24 1   
    33    15    34 1   
    34    15    35 1   
    35    16    18 1   
    36    16    24 1   
    37    16    36 1   
    38    16    37 1   
    39    17    19 1   
    40    17    38 1   
    41    18    25 1   
    42    18    39 1   
    43    19    40 1   
    44    19    41 1   
    45    19    42 1   
    46    23    43 1   
    47    25    44 1   
    48    25    45 1   
@<TRIPOS>SUBSTRUCTURE
     1 Y3I         1 TEMP              0 ****  ****    0 ROOT
