@<TRIPOS>MOLECULE
Y3J
   31    33     1     0     0
SMALL
bcc


@<TRIPOS>ATOM
      1 N1          -4.5810    -0.3830     0.8240 nb         1 Y3J      -0.828000
      2 C2          -3.6790    -1.2540     1.2680 ca         1 Y3J       0.712900
      3 N3          -2.3760    -1.2710     1.0500 nb         1 Y3J      -0.742000
      4 C4          -1.9930    -0.2530     0.2840 ca         1 Y3J       0.476800
      5 C5          -2.8090     0.7310    -0.2480 ca         1 Y3J      -0.233200
      6 C6          -4.1800     0.6350     0.0530 ca         1 Y3J       0.781200
      7 N6          -5.0820     1.5060    -0.3990 nv         1 Y3J      -0.953500
      8 N7          -2.0750     1.6290    -0.9810 nc         1 Y3J      -0.547100
      9 C8          -0.8540     1.1970    -0.8960 cd         1 Y3J       0.407700
     10 N9          -0.7320     0.0540    -0.1480 na         1 Y3J      -0.258000
     11 FAB          3.0720     2.2530     0.9400 f          1 Y3J      -0.234300
     12 FAG          4.5470     1.1050    -0.1960 f          1 Y3J      -0.234300
     13 CAH          3.2130     1.2510     0.0320 c3         1 Y3J       0.405900
     14 CAI          2.6670    -0.0420     0.6090 c5         1 Y3J       0.047100
     15 OAJ          1.3050     0.1630     0.9580 os         1 Y3J      -0.387600
     16 CAK          0.4690    -0.6580     0.1800 c5         1 Y3J       0.259800
     17 CAQ          2.6920    -1.2080    -0.3890 c5         1 Y3J       0.082100
     18 CAR          1.3100    -1.0630    -1.0280 c5         1 Y3J       0.116100
     19 OAS          2.7390    -2.4470     0.2610 oh         1 Y3J      -0.561800
     20 OAT          0.7680    -2.1990    -1.6140 oh         1 Y3J      -0.545800
     21 H2          -4.0700    -2.0530     1.8890 h5         1 Y3J       0.048100
     22 HN6         -6.0440     1.4290    -0.1190 hn         1 Y3J       0.451800
     23 HN6A        -4.8060     2.3080    -0.9370 hn         1 Y3J       0.451800
     24 H8           0.0000     1.6730    -1.3530 h5         1 Y3J       0.059800
     25 HAH          2.7340     1.5620    -0.8980 h2         1 Y3J       0.057700
     26 HAI          3.2440    -0.2840     1.5090 h1         1 Y3J       0.099700
     27 HAK          0.1550    -1.5470     0.7370 h2         1 Y3J       0.133700
     28 HAQ          3.4960    -1.1050    -1.1260 h1         1 Y3J       0.062700
     29 HOAS         3.5960    -2.5350     0.6910 ho         1 Y3J       0.414000
     30 HAR          1.3590    -0.2240    -1.7370 h1         1 Y3J       0.038700
     31 HAT          1.2110    -2.3590    -2.4540 ho         1 Y3J       0.416000
@<TRIPOS>BOND
     1     1     2 ar  
     2     1     6 ar  
     3     2     3 ar  
     4     2    21 1   
     5     3     4 ar  
     6     4     5 ar  
     7     4    10 1   
     8     5     6 ar  
     9     5     8 1   
    10     6     7 1   
    11     7    22 1   
    12     7    23 1   
    13     8     9 2   
    14     9    10 1   
    15     9    24 1   
    16    10    16 1   
    17    11    13 1   
    18    12    13 1   
    19    13    14 1   
    20    13    25 1   
    21    14    15 1   
    22    14    17 1   
    23    14    26 1   
    24    15    16 1   
    25    16    18 1   
    26    16    27 1   
    27    17    18 1   
    28    17    19 1   
    29    17    28 1   
    30    18    20 1   
    31    18    30 1   
    32    19    29 1   
    33    20    31 1   
@<TRIPOS>SUBSTRUCTURE
     1 Y3J         1 TEMP              0 ****  ****    0 ROOT
