@<TRIPOS>MOLECULE
Y3J
   31    33     1     0     0
SMALL
No Charge or Current Charge


@<TRIPOS>ATOM
      1 N1          -4.3370    -0.2830    -0.7900 nb         1 Y3J      -0.302000
      2 C2          -3.4920    -1.3410    -0.7670 ca         1 Y3J       0.186900
      3 N3          -2.2150    -1.3460    -0.3190 nb         1 Y3J      -0.216000
      4 C4          -1.7460    -0.1710     0.1480 ca         1 Y3J       0.148500
      5 C5          -2.5230     0.9600     0.1730 ca         1 Y3J      -0.102600
      6 C6          -3.8430     0.8710    -0.3180 ca         1 Y3J       0.452900
      7 N6          -4.6910     1.9330    -0.3320 nv         1 Y3J      -1.063900
      8 N7          -1.8560     2.0530     0.7130 nc         1 Y3J      -0.547100
      9 C8          -0.6530     1.5260     1.0080 cd         1 Y3J       0.407700
     10 N9          -0.5210     0.1660     0.6680 na         1 Y3J      -0.287300
     11 FAB          2.1640     2.4130    -0.5930 f          1 Y3J      -0.113000
     12 FAG          2.9260     1.1360    -2.1780 f          1 Y3J      -0.113000
     13 CAH          2.1400     1.1500    -1.0770 c3         1 Y3J       0.163300
     14 CAI          2.6520     0.1340    -0.0150 c5         1 Y3J       0.070300
     15 OAJ          1.8080     0.1380     1.1600 os         1 Y3J      -0.434000
     16 CAK          0.6470    -0.6900     0.8980 c5         1 Y3J       0.312300
     17 CAQ          2.5900    -1.3580    -0.4590 c5         1 Y3J       0.105300
     18 CAR          1.0640    -1.6480    -0.2890 c5         1 Y3J       0.139300
     19 OAS          3.3660    -2.2220     0.3980 oh         1 Y3J      -0.684000
     20 OAT          0.9000    -3.0400    -0.0040 oh         1 Y3J      -0.668000
     21 H2          -3.8800    -2.2850    -1.1470 h5         1 Y3J       0.048100
     22 HN6         -5.6870     1.7460    -0.4080 hn         1 Y3J       0.507000
     23 HN6A        -4.4200     2.7460     0.2170 hn         1 Y3J       0.507000
     24 H8           0.1650     2.0690     1.4660 h5         1 Y3J       0.059800
     25 HAH          1.1150     0.9090    -1.3780 h2         1 Y3J       0.057700
     26 HAI          3.6700     0.4300     0.2730 h1         1 Y3J       0.099700
     27 HAK          0.4120    -1.2800     1.7930 h2         1 Y3J       0.133700
     28 HAQ          2.9030    -1.4790    -1.5070 h1         1 Y3J       0.062700
     29 HOAS         4.3120    -1.9510     0.3180 ho         1 Y3J       0.513000
     30 HAR          0.5210    -1.3810    -1.2050 h1         1 Y3J       0.038700
     31 HAT          1.8040    -3.2940     0.3170 ho         1 Y3J       0.515000
@<TRIPOS>BOND
     1     1     2 ar  
     2     1     6 ar  
     3     2     3 ar  
     4     2    21 1   
     5     3     4 ar  
     6     4     5 ar  
     7     4    10 1   
     8     5     6 ar  
     9     5     8 1   
    10     6     7 1   
    11     7    22 1   
    12     7    23 1   
    13     8     9 2   
    14     9    10 1   
    15     9    24 1   
    16    10    16 1   
    17    11    13 1   
    18    12    13 1   
    19    13    14 1   
    20    13    25 1   
    21    14    15 1   
    22    14    17 1   
    23    14    26 1   
    24    15    16 1   
    25    16    18 1   
    26    16    27 1   
    27    17    18 1   
    28    17    19 1   
    29    17    28 1   
    30    18    20 1   
    31    18    30 1   
    32    19    29 1   
    33    20    31 1   
@<TRIPOS>SUBSTRUCTURE
     1 Y3J         1 TEMP              0 ****  ****    0 ROOT
