@<TRIPOS>MOLECULE
Y3L
   21    22     1     0     0
SMALL
No Charge or Current Charge


@<TRIPOS>ATOM
      1 NAG          0.9220    -1.4620     0.0970 nc         1 Y3L      -0.605100
      2 CAM         -0.4070    -1.0500     0.0620 ca         1 Y3L       0.125400
      3 CAE         -1.4960    -1.9340     0.1500 ca         1 Y3L      -0.060000
      4 CAD         -2.8130    -1.4290     0.1060 ca         1 Y3L      -0.100000
      5 CAK         -3.0350    -0.0440    -0.0260 ca         1 Y3L       0.116000
      6 ClAC        -4.6780     0.5810    -0.0800 cl         1 Y3L      -0.202000
      7 CAF         -1.9430     0.8400    -0.1130 ca         1 Y3L      -0.056000
      8 CAN         -0.6440     0.3070    -0.0670 ca         1 Y3L      -0.224000
      9 SAI          0.8460     1.2230    -0.1580 ss         1 Y3L       0.136800
     10 CAL          1.6760    -0.3610    -0.0100 cd         1 Y3L       0.443800
     11 NAH          3.0400    -0.5160     0.0010 ns         1 Y3L      -0.404400
     12 CAJ          4.0250     0.4360    -0.0930 c          1 Y3L       0.608100
     13 OAB          3.8100     1.6330    -0.2060 o          1 Y3L      -0.565100
     14 CAA          5.4430    -0.1190    -0.0440 c3         1 Y3L      -0.173100
     15 HAH          3.3810    -1.4610     0.0900 hn         1 Y3L       0.341500
     16 HAE         -1.3230    -3.0020     0.2510 ha         1 Y3L       0.134000
     17 HAD         -3.6580    -2.1090     0.1730 ha         1 Y3L       0.132000
     18 HAF         -2.1070     1.9100    -0.2150 ha         1 Y3L       0.138000
     19 HAA1         5.5590    -0.8740    -0.8310 hc         1 Y3L       0.071033
     20 HAA2         6.2040     0.6650    -0.1210 hc         1 Y3L       0.071033
     21 HAA3         5.5640    -0.7120     0.8700 hc         1 Y3L       0.071033
@<TRIPOS>BOND
     1     1     2 1   
     2     1    10 2   
     3     2     3 ar  
     4     2     8 ar  
     5     3     4 ar  
     6     3    16 1   
     7     4     5 ar  
     8     4    17 1   
     9     5     6 1   
    10     5     7 ar  
    11     7     8 ar  
    12     7    18 1   
    13     8     9 1   
    14     9    10 1   
    15    10    11 1   
    16    11    12 1   
    17    11    15 1   
    18    12    13 2   
    19    12    14 1   
    20    14    19 1   
    21    14    20 1   
    22    14    21 1   
@<TRIPOS>SUBSTRUCTURE
     1 Y3L         1 TEMP              0 ****  ****    0 ROOT
